/*--------------------------------*- C++ -*----------------------------------*\
  =========                 |
  \\      /  F ield         | OpenFOAM: The Open Source CFD Toolbox
   \\    /   O peration     | Website:  https://openfoam.org
    \\  /    A nd           | Version:  9
     \\/     M anipulation  |
\*---------------------------------------------------------------------------*/
FoamFile
{
    format      ascii;
    class       featureEdgeMesh;
    location    "constant/triSurface";
    object      Air.eMesh;
}
// * * * * * * * * * * * * * * * * * * * * * * * * * * * * * * * * * * * * * //


// points:

254
(
(44.5312 2 5.80079)
(43.75 2 5.8086)
(44.5312 8 5.80079)
(24.2188 8 6.00391)
(25 8 5.9961)
(24.2188 2 6.00391)
(25.7812 8 5.98829)
(25 2 5.9961)
(19.5312 8 6.05079)
(18.75 2 6.0586)
(18.75 8 6.0586)
(26.5625 8 5.98047)
(27.3438 8 5.97266)
(26.5625 2 5.98047)
(28.125 8 5.96485)
(27.3438 2 5.97266)
(20.3125 8 6.04297)
(20.3125 2 6.04297)
(19.5312 2 6.05079)
(23.4375 8 6.01172)
(23.4375 2 6.01172)
(17.9688 2 6.06641)
(21.0938 8 6.03516)
(28.9062 8 5.95704)
(28.125 2 5.96485)
(22.6562 8 6.01954)
(22.6562 2 6.01954)
(21.0938 2 6.03516)
(29.6875 8 5.94922)
(28.9062 2 5.95704)
(21.875 8 6.02735)
(21.875 2 6.02735)
(17.9688 8 6.06641)
(30.4688 8 5.94141)
(29.6875 2 5.94922)
(17.1875 2 6.07422)
(17.1875 8 6.07422)
(31.25 8 5.9336)
(30.4688 2 5.94141)
(16.4062 2 6.08204)
(32.0312 8 5.92579)
(31.25 2 5.9336)
(32.8125 8 5.91797)
(32.0312 2 5.92579)
(16.4062 8 6.08204)
(33.5938 8 5.91016)
(32.8125 2 5.91797)
(15.625 2 6.08985)
(15.625 8 6.08985)
(34.375 8 5.90235)
(33.5938 2 5.91016)
(14.8438 2 6.09766)
(35.1562 8 5.89454)
(34.375 2 5.90235)
(35.9375 8 5.88672)
(35.1562 2 5.89454)
(14.8438 8 6.09766)
(36.7188 8 5.87891)
(35.9375 2 5.88672)
(14.0625 2 6.10547)
(14.0625 8 6.10547)
(37.5 8 5.8711)
(36.7188 2 5.87891)
(13.2812 8 6.11329)
(38.2812 8 5.86329)
(37.5 2 5.8711)
(13.2812 2 6.11329)
(25.7812 2 5.98829)
(39.0625 8 5.85547)
(38.2812 2 5.86329)
(12.5 8 6.1211)
(39.8438 8 5.84766)
(39.0625 2 5.85547)
(11.7188 8 6.12891)
(12.5 2 6.1211)
(40.625 8 5.83985)
(39.8438 2 5.84766)
(10.9375 8 6.13672)
(11.7188 2 6.12891)
(41.4062 8 5.83204)
(40.625 2 5.83985)
(10.1562 8 6.14454)
(10.9375 2 6.13672)
(42.1875 8 5.82422)
(41.4062 2 5.83204)
(9.375 8 6.15235)
(10.1562 2 6.14454)
(42.9688 8 5.81641)
(42.1875 2 5.82422)
(8.59375 8 6.16016)
(9.375 2 6.15235)
(43.75 8 5.8086)
(42.9688 2 5.81641)
(7.8125 8 6.16797)
(8.59375 2 6.16016)
(7.03125 8 6.17579)
(7.8125 2 6.16797)
(45.3125 8 5.79297)
(6.25 8 6.1836)
(7.03125 2 6.17579)
(46.0938 8 5.78516)
(45.3125 2 5.79297)
(5.46875 8 6.19141)
(6.25 2 6.1836)
(46.875 8 5.77735)
(46.0938 2 5.78516)
(4.6875 8 6.19922)
(5.46875 2 6.19141)
(47.6562 8 5.76954)
(46.875 2 5.77735)
(3.90625 8 6.20704)
(4.6875 2 6.19922)
(48.4375 8 5.76172)
(47.6562 2 5.76954)
(3.125 8 6.21485)
(3.125 2 6.21485)
(-0.625 8 6.2461)
(-2.5 6.3125 6.2461)
(-0.9375 8 6.2461)
(49.2188 8 5.75391)
(48.4375 2 5.76172)
(2.34375 8 6.22266)
(2.34375 2 6.22266)
(-2.5 6.125 6.2461)
(-2.5 6.5 6.2461)
(0.78125 8 6.23829)
(1.5625 8 6.23047)
(1.5625 2 6.23047)
(-1.25 8 6.2461)
(-2.5 6.6875 6.2461)
(-2.5 6.875 6.2461)
(-0.3125 8 6.2461)
(0 8 6.2461)
(-2.5 5.75 6.2461)
(-2.5 5.1875 6.2461)
(-2.5 5.9375 6.2461)
(-1.5625 8 6.2461)
(-2.5 7.25 6.2461)
(-2.5 7.0625 6.2461)
(49.4141 8.5 5.75391)
(51.6852 10 5.75391)
(49.6094 9 5.75391)
(51.1235 10 5.75391)
(-1.875 8 6.2461)
(-2.5 7.4375 6.2461)
(-2.5 7.625 6.2461)
(-2.5 7.8125 6.2461)
(-2.5 8 6.2461)
(-2.1875 8 6.2461)
(49.8047 9.5 5.75391)
(50.5617 10 5.75391)
(50 10 5.75391)
(52.247 10 5.75391)
(-2.5 5.5625 6.2461)
(-2.5 5.375 6.2461)
(52.8087 10 5.75391)
(53.3704 10 5.75391)
(56.7409 6.3125 5.75391)
(53.9322 10 5.75391)
(56.7409 6.875 5.75391)
(-2.5 5 6.2461)
(0.78125 2 6.23829)
(56.7409 5.9375 5.75391)
(56.7409 7.0625 5.75391)
(56.7409 7.625 5.75391)
(54.4939 10 5.75391)
(56.7409 7.8125 5.75391)
(55.0557 10 5.75391)
(56.7409 8 5.75391)
(55.6174 10 5.75391)
(56.7409 8.5 5.75391)
(56.7409 8.25 5.75391)
(56.7409 7.4375 5.75391)
(-2.5 4.8125 6.2461)
(56.7409 9 5.75391)
(56.7409 9.25 5.75391)
(56.1791 10 5.75391)
(56.7409 10 5.75391)
(56.7409 9.75 5.75391)
(56.7409 8.75 5.75391)
(56.7409 9.5 5.75391)
(-2.5 4.25 6.2461)
(-2.5 4.4375 6.2461)
(0 2 6.2461)
(-2.5 4.625 6.2461)
(-2.5 3.6875 6.2461)
(-2.5 3.875 6.2461)
(-0.625 2 6.2461)
(-2.5 4.0625 6.2461)
(-0.3125 2 6.2461)
(3.90625 2 6.20704)
(-2.5 3.125 6.2461)
(-2.5 3.3125 6.2461)
(-1.25 2 6.2461)
(-2.5 3.5 6.2461)
(-0.9375 2 6.2461)
(56.7409 7.25 5.75391)
(-2.5 2.5625 6.2461)
(-2.5 2.75 6.2461)
(-1.875 2 6.2461)
(-2.5 2.9375 6.2461)
(-1.5625 2 6.2461)
(56.7409 6.6875 5.75391)
(-2.5 2 6.2461)
(-2.5 2.1875 6.2461)
(-2.1875 2 6.2461)
(-2.5 2.375 6.2461)
(56.7409 6.5 5.75391)
(56.7409 6.125 5.75391)
(56.7409 5.75 5.75391)
(56.7409 5.5625 5.75391)
(56.7409 5.375 5.75391)
(56.7409 5.1875 5.75391)
(56.7409 5 5.75391)
(56.7409 4.8125 5.75391)
(49.2188 2 5.75391)
(56.7409 4.625 5.75391)
(56.7409 4.4375 5.75391)
(56.7409 4.25 5.75391)
(56.7409 4.0625 5.75391)
(56.7409 3.875 5.75391)
(52.8087 -1e-06 5.75391)
(56.7409 3.6875 5.75391)
(56.7409 3.5 5.75391)
(56.7409 3.3125 5.75391)
(53.3704 -1e-06 5.75391)
(56.7409 3.125 5.75391)
(56.7409 2.9375 5.75391)
(56.7409 2.75 5.75391)
(53.9322 -1e-06 5.75391)
(56.7409 2.5625 5.75391)
(56.7409 2.375 5.75391)
(56.7409 2.1875 5.75391)
(54.4939 -1e-06 5.75391)
(56.7409 2 5.75391)
(56.7409 1.75 5.75391)
(56.7409 1.5 5.75391)
(55.0557 -1e-06 5.75391)
(56.7409 1.25 5.75391)
(55.6174 -1e-06 5.75391)
(56.7409 1 5.75391)
(56.7409 0.75 5.75391)
(56.7409 0.5 5.75391)
(56.1791 -1e-06 5.75391)
(56.7409 0.25 5.75391)
(56.7409 -1e-06 5.75391)
(52.247 -1e-06 5.75391)
(51.6852 -1e-06 5.75391)
(51.1235 -1e-06 5.75391)
(49.4141 1.5 5.75391)
(50.5617 -1e-06 5.75391)
(50 -1e-06 5.75391)
(49.8047 0.499999 5.75391)
(49.6094 1 5.75391)
)


// edges:

505
(
(125 134)
(161 173)
(215 119)
(134 132)
(125 161)
(173 183)
(2 0)
(5 3)
(4 5)
(6 7)
(8 9)
(12 13)
(15 12)
(14 15)
(3 20)
(8 18)
(22 17)
(23 24)
(26 25)
(19 26)
(22 27)
(29 23)
(28 29)
(30 27)
(25 31)
(21 32)
(33 34)
(38 33)
(37 38)
(40 41)
(43 40)
(39 44)
(45 46)
(50 45)
(51 48)
(52 53)
(55 52)
(51 56)
(57 58)
(62 57)
(59 63)
(64 65)
(66 63)
(6 67)
(69 64)
(11 67)
(71 72)
(74 73)
(76 71)
(73 78)
(79 80)
(82 81)
(84 79)
(81 86)
(87 88)
(90 89)
(92 87)
(89 94)
(95 99)
(100 101)
(105 100)
(102 107)
(108 109)
(113 108)
(110 115)
(119 120)
(122 121)
(140 119)
(141 142)
(150 141)
(156 157)
(158 159)
(155 119)
(125 160)
(155 162)
(167 168)
(169 170)
(172 165)
(176 175)
(190 110)
(213 119)
(215 213)
(221 219)
(221 215)
(222 225)
(226 229)
(230 233)
(239 236)
(237 234)
(243 241)
(247 215)
(253 248)
(250 253)
(1 2)
(7 4)
(9 10)
(13 11)
(16 17)
(18 16)
(20 19)
(21 10)
(24 14)
(31 30)
(34 28)
(35 32)
(35 36)
(39 36)
(41 37)
(42 43)
(46 42)
(47 44)
(47 48)
(49 50)
(53 49)
(54 55)
(58 54)
(59 56)
(59 60)
(61 62)
(65 61)
(68 69)
(66 70)
(72 68)
(70 74)
(75 76)
(78 77)
(80 75)
(77 82)
(83 84)
(86 85)
(88 83)
(85 90)
(91 92)
(94 93)
(1 91)
(96 95)
(93 96)
(97 0)
(99 98)
(101 97)
(98 103)
(103 102)
(104 105)
(107 106)
(109 104)
(111 110)
(106 111)
(112 113)
(115 114)
(116 117)
(117 118)
(120 112)
(114 122)
(116 123)
(124 118)
(126 127)
(127 125)
(122 126)
(128 129)
(130 128)
(133 131)
(132 133)
(129 118)
(131 135)
(135 116)
(130 136)
(137 136)
(136 138)
(139 140)
(142 139)
(137 143)
(144 143)
(145 143)
(148 146)
(145 148)
(149 150)
(152 119)
(132 153)
(154 132)
(157 155)
(159 156)
(161 160)
(162 119)
(158 163)
(164 165)
(165 166)
(168 165)
(170 167)
(171 167)
(172 158)
(174 169)
(169 175)
(178 176)
(179 169)
(176 180)
(182 183)
(183 181)
(184 183)
(186 187)
(187 185)
(188 187)
(181 189)
(189 188)
(193 191)
(192 193)
(194 195)
(195 192)
(185 195)
(196 158)
(199 197)
(198 199)
(200 201)
(201 198)
(201 191)
(202 156)
(204 205)
(206 205)
(206 199)
(207 156)
(208 155)
(210 119)
(119 209)
(211 119)
(119 212)
(214 215)
(217 215)
(215 216)
(218 215)
(220 221)
(222 221)
(219 215)
(224 225)
(225 223)
(226 225)
(228 229)
(229 227)
(230 229)
(232 233)
(233 231)
(234 233)
(237 235)
(236 237)
(238 239)
(239 240)
(241 239)
(242 243)
(243 244)
(215 246)
(249 247)
(248 249)
(252 250)
(0 1)
(3 4)
(4 6)
(10 8)
(11 12)
(12 14)
(17 18)
(19 3)
(18 9)
(9 21)
(16 22)
(14 23)
(25 19)
(27 17)
(23 28)
(22 30)
(30 25)
(32 10)
(28 33)
(31 27)
(21 35)
(36 32)
(33 37)
(35 39)
(37 40)
(8 16)
(26 31)
(40 42)
(44 36)
(42 45)
(20 26)
(39 47)
(48 44)
(45 49)
(47 51)
(49 52)
(5 20)
(52 54)
(56 48)
(54 57)
(7 5)
(51 59)
(60 56)
(57 61)
(63 60)
(61 64)
(59 66)
(67 7)
(64 68)
(6 11)
(70 63)
(68 71)
(13 67)
(73 70)
(66 74)
(71 75)
(77 73)
(75 79)
(81 77)
(74 78)
(15 13)
(79 83)
(85 81)
(83 87)
(24 15)
(89 85)
(78 82)
(87 91)
(93 89)
(91 2)
(95 93)
(82 86)
(29 24)
(2 97)
(98 95)
(97 100)
(34 29)
(102 98)
(86 90)
(100 104)
(106 102)
(104 108)
(110 106)
(90 94)
(38 34)
(108 112)
(114 110)
(118 116)
(112 119)
(41 38)
(121 114)
(123 117)
(117 124)
(125 126)
(126 121)
(129 130)
(131 132)
(132 125)
(124 129)
(128 118)
(116 131)
(136 128)
(138 137)
(119 139)
(139 141)
(143 136)
(130 138)
(137 144)
(144 145)
(146 147)
(147 148)
(148 143)
(145 146)
(133 135)
(135 123)
(141 149)
(149 151)
(151 150)
(142 140)
(150 142)
(140 152)
(153 133)
(134 154)
(154 153)
(155 156)
(156 158)
(152 155)
(160 134)
(122 127)
(163 159)
(166 164)
(165 167)
(167 169)
(170 171)
(164 172)
(158 165)
(171 168)
(173 160)
(175 174)
(176 177)
(177 178)
(174 179)
(169 176)
(180 175)
(127 161)
(115 122)
(181 182)
(182 184)
(184 173)
(178 180)
(179 170)
(185 186)
(186 188)
(188 181)
(111 190)
(168 166)
(190 115)
(161 183)
(191 192)
(192 194)
(194 185)
(172 196)
(187 195)
(197 198)
(198 200)
(193 201)
(200 191)
(195 193)
(196 163)
(159 202)
(203 204)
(205 203)
(204 206)
(199 205)
(206 197)
(201 199)
(202 207)
(207 157)
(157 208)
(208 162)
(209 210)
(210 211)
(162 209)
(183 189)
(189 187)
(212 213)
(213 214)
(211 212)
(216 217)
(217 218)
(214 216)
(107 111)
(219 220)
(220 222)
(218 219)
(96 99)
(99 103)
(103 107)
(223 224)
(224 226)
(225 221)
(222 223)
(94 96)
(227 228)
(228 230)
(229 225)
(226 227)
(231 232)
(232 234)
(233 229)
(230 231)
(235 236)
(236 238)
(234 235)
(43 41)
(46 43)
(237 233)
(240 241)
(241 242)
(238 240)
(239 237)
(53 50)
(50 46)
(243 239)
(244 245)
(245 243)
(242 244)
(55 53)
(58 55)
(62 58)
(65 62)
(246 247)
(247 248)
(221 246)
(72 69)
(69 65)
(249 215)
(250 251)
(251 252)
(248 250)
(76 72)
(253 249)
(252 253)
(80 76)
(120 113)
(113 109)
(215 120)
(84 80)
(88 84)
(105 101)
(101 0)
(109 105)
(1 92)
(92 88)
)

// * * * * * * * * * * * * * * * * * * * * * * * * * * * * * * * * * * * * * //


// ************************************************************************* //
