/*--------------------------------*- C++ -*----------------------------------*\
  =========                 |
  \\      /  F ield         | OpenFOAM: The Open Source CFD Toolbox
   \\    /   O peration     | Website:  https://openfoam.org
    \\  /    A nd           | Version:  9
     \\/     M anipulation  |
\*---------------------------------------------------------------------------*/
FoamFile
{
    format      ascii;
    class       featureEdgeMesh;
    location    "constant/triSurface";
    object      Obstacle.eMesh;
}
// * * * * * * * * * * * * * * * * * * * * * * * * * * * * * * * * * * * * * //


// points:

231
(
(20.3125 6.125 1.01514)
(20.3125 6.3125 1.7334)
(20.3125 6.3125 1.01514)
(20.3125 3.875 1.7334)
(20.3125 4.0625 1.7334)
(20.3125 3.875 1.01514)
(20.3125 4.25 1.7334)
(20.3125 4.0625 1.01514)
(20.3125 3.125 1.7334)
(20.3125 2.9375 1.01514)
(20.3125 2.9375 1.7334)
(20.3125 4.4375 1.7334)
(20.3125 4.625 1.7334)
(20.3125 4.4375 1.01514)
(20.3125 4.8125 1.7334)
(20.3125 4.625 1.01514)
(20.3125 3.3125 1.01514)
(20.3125 3.5 1.7334)
(20.3125 3.5 1.01514)
(20.3125 3.6875 1.7334)
(20.3125 3.6875 1.01514)
(20.3125 3.125 1.01514)
(20.3125 2.75 1.01514)
(20.3125 3.3125 1.7334)
(20.3125 5 1.7334)
(20.3125 4.8125 1.01514)
(20.3125 5.1875 1.7334)
(20.3125 5 1.01514)
(20.3125 2.75 1.7334)
(20.3125 5.375 1.7334)
(20.3125 5.1875 1.01514)
(20.3125 2.5625 1.01514)
(20.3125 2.5625 1.7334)
(20.3125 5.5625 1.7334)
(20.3125 5.375 1.01514)
(20.3125 2.375 1.01514)
(20.3125 5.75 1.7334)
(20.3125 5.5625 1.01514)
(20.3125 5.9375 1.7334)
(20.3125 5.75 1.01514)
(20.3125 2.375 1.7334)
(20.3125 6.125 1.7334)
(20.3125 5.9375 1.01514)
(20.3125 2.1875 1.01514)
(20.3125 2.1875 1.7334)
(20.3125 4.25 1.01514)
(20.3125 2 1.01514)
(20.3125 6.5 1.7334)
(20.3125 2 1.7334)
(20.3125 6.6875 1.7334)
(20.3125 6.5 1.01514)
(20.3125 6.875 1.7334)
(20.3125 6.6875 1.01514)
(20.3125 7.0625 1.7334)
(20.3125 6.875 1.01514)
(20.3125 7.25 1.7334)
(20.3125 7.0625 1.01514)
(20.3125 7.4375 1.7334)
(20.3125 7.25 1.01514)
(20.3125 7.625 1.7334)
(20.3125 7.4375 1.01514)
(20.3125 7.8125 1.7334)
(20.3125 7.8125 1.01514)
(20.3125 8 1.7334)
(20.3125 8 1.01514)
(20.3125 7.625 1.01514)
(20.3125 8 0.296875)
(20.3125 7.8125 0.296875)
(20.3125 2 0.296875)
(20.3125 2.375 0.296875)
(20.3125 2.5625 0.296875)
(20.3125 2.1875 0.296875)
(20.3125 2.75 0.296875)
(20.3125 2.9375 0.296875)
(20.3125 3.125 0.296875)
(20.3125 3.3125 0.296875)
(20.3125 3.5 0.296875)
(20.3125 3.6875 0.296875)
(20.3125 3.875 0.296875)
(20.3125 4.0625 0.296875)
(20.3125 4.25 0.296875)
(20.3125 4.4375 0.296875)
(20.3125 4.625 0.296875)
(20.3125 4.8125 0.296875)
(20.3125 5 0.296875)
(20.3125 5.1875 0.296875)
(20.3125 5.375 0.296875)
(20.3125 5.5625 0.296875)
(20.3125 5.75 0.296875)
(20.3125 5.9375 0.296875)
(20.3125 6.125 0.296875)
(20.3125 6.3125 0.296875)
(20.3125 6.5 0.296875)
(20.3125 6.6875 0.296875)
(20.3125 6.875 0.296875)
(20.3125 7.0625 0.296875)
(20.3125 7.25 0.296875)
(20.3125 7.4375 0.296875)
(20.3125 7.625 0.296875)
(18.75 2.1875 1.03076)
(18.75 2 0.3125)
(18.75 2.1875 0.3125)
(18.75 8 0.3125)
(18.75 8 1.03076)
(18.75 7.8125 1.03076)
(18.75 7.625 1.03076)
(18.75 7.4375 1.03076)
(18.75 7.625 0.3125)
(18.75 7.25 1.03076)
(18.75 7.4375 0.3125)
(18.75 7.8125 0.3125)
(18.75 7.0625 1.03076)
(18.75 7.25 0.3125)
(18.75 6.875 1.03076)
(18.75 7.0625 0.3125)
(18.75 6.6875 1.03076)
(18.75 6.875 0.3125)
(18.75 6.5 1.03076)
(18.75 6.6875 0.3125)
(18.75 6.3125 1.03076)
(18.75 6.5 0.3125)
(18.75 6.125 1.03076)
(18.75 6.3125 0.3125)
(18.75 5.9375 1.03076)
(18.75 6.125 0.3125)
(18.75 5.75 1.03076)
(18.75 5.9375 0.3125)
(18.75 5.5625 1.03076)
(18.75 5.75 0.3125)
(18.75 5.375 1.03076)
(18.75 5.5625 0.3125)
(18.75 5.1875 1.03076)
(18.75 5.375 0.3125)
(18.75 5 1.03076)
(18.75 5.1875 0.3125)
(18.75 4.8125 1.03076)
(18.75 5 0.3125)
(18.75 4.625 1.03076)
(18.75 4.8125 0.3125)
(18.75 4.4375 1.03076)
(18.75 4.625 0.3125)
(18.75 4.25 1.03076)
(18.75 4.4375 0.3125)
(18.75 4.0625 1.03076)
(18.75 4.25 0.3125)
(18.75 3.875 1.03076)
(18.75 4.0625 0.3125)
(18.75 3.6875 1.03076)
(18.75 3.875 0.3125)
(18.75 3.5 1.03076)
(18.75 3.6875 0.3125)
(18.75 3.3125 1.03076)
(18.75 3.5 0.3125)
(18.75 3.125 1.03076)
(18.75 3.3125 0.3125)
(18.75 2.9375 1.03076)
(18.75 3.125 0.3125)
(18.75 2.75 1.03076)
(18.75 2.9375 0.3125)
(18.75 2.5625 1.03076)
(18.75 2.75 0.3125)
(18.75 2.375 1.03076)
(18.75 2.5625 0.3125)
(18.75 2 1.03076)
(18.75 2.375 0.3125)
(18.75 3.3125 1.74902)
(18.75 8 1.74902)
(18.75 7.8125 1.74902)
(18.75 7.625 1.74902)
(18.75 7.4375 1.74902)
(18.75 7.25 1.74902)
(18.75 7.0625 1.74902)
(18.75 6.875 1.74902)
(18.75 6.6875 1.74902)
(18.75 6.5 1.74902)
(18.75 6.3125 1.74902)
(18.75 6.125 1.74902)
(18.75 5.9375 1.74902)
(18.75 5.75 1.74902)
(18.75 5.5625 1.74902)
(18.75 5.375 1.74902)
(18.75 5.1875 1.74902)
(18.75 5 1.74902)
(18.75 4.8125 1.74902)
(18.75 4.625 1.74902)
(18.75 4.4375 1.74902)
(18.75 4.25 1.74902)
(18.75 4.0625 1.74902)
(18.75 3.875 1.74902)
(18.75 3.6875 1.74902)
(18.75 3.5 1.74902)
(18.75 3.125 1.74902)
(18.75 2.9375 1.74902)
(18.75 2.75 1.74902)
(18.75 2.5625 1.74902)
(18.75 2.375 1.74902)
(18.75 2.1875 1.74902)
(18.75 2 1.74902)
(19.5312 4.0625 1.74121)
(19.5312 3.875 1.74121)
(19.5312 4.625 1.74121)
(19.5312 4.4375 1.74121)
(19.5312 6.125 1.74121)
(19.5312 6.3125 1.74121)
(19.5312 4.25 1.74121)
(19.5312 5.9375 1.74121)
(19.5312 3.6875 1.74121)
(19.5312 3.5 1.74121)
(19.5312 5.75 1.74121)
(19.5312 5.5625 1.74121)
(19.5312 3.3125 1.74121)
(19.5312 4.8125 1.74121)
(19.5312 3.125 1.74121)
(19.5312 5.375 1.74121)
(19.5312 5 1.74121)
(19.5312 2.9375 1.74121)
(19.5312 5.1875 1.74121)
(19.5312 6.5 1.74121)
(19.5312 2.75 1.74121)
(19.5312 6.6875 1.74121)
(19.5312 2.5625 1.74121)
(19.5312 2.375 1.74121)
(19.5312 6.875 1.74121)
(19.5312 7.0625 1.74121)
(19.5312 7.25 1.74121)
(19.5312 7.4375 1.74121)
(19.5312 7.625 1.74121)
(19.5312 7.8125 1.74121)
(19.5312 8 1.74121)
(19.5312 2.1875 1.74121)
(19.5312 2 1.74121)
)


// edges:

614
(
(3 4)
(4 6)
(10 8)
(11 12)
(12 14)
(19 3)
(23 17)
(14 24)
(17 19)
(24 26)
(28 10)
(26 29)
(8 23)
(32 28)
(29 33)
(33 36)
(36 38)
(40 32)
(38 41)
(44 40)
(41 1)
(1 47)
(48 44)
(6 11)
(47 49)
(49 51)
(51 53)
(53 55)
(55 57)
(57 59)
(59 61)
(61 63)
(166 167)
(167 168)
(168 169)
(170 171)
(171 172)
(169 170)
(172 173)
(173 174)
(175 176)
(176 177)
(174 175)
(177 178)
(178 179)
(180 181)
(181 182)
(179 180)
(182 183)
(183 184)
(184 185)
(185 186)
(186 187)
(187 188)
(188 189)
(189 190)
(190 165)
(165 191)
(191 192)
(193 194)
(194 195)
(192 193)
(195 196)
(196 197)
(198 3)
(200 12)
(11 200)
(201 11)
(6 201)
(204 6)
(4 204)
(198 4)
(205 38)
(36 205)
(33 208)
(208 36)
(38 202)
(29 209)
(12 211)
(211 14)
(214 24)
(14 214)
(203 1)
(216 26)
(24 216)
(26 213)
(219 47)
(219 49)
(222 223)
(49 222)
(219 222)
(224 55)
(53 224)
(223 53)
(224 225)
(225 57)
(223 224)
(226 59)
(57 226)
(61 228)
(227 61)
(230 229)
(200 211)
(221 220)
(220 218)
(229 221)
(201 200)
(215 212)
(212 210)
(218 215)
(204 201)
(210 207)
(198 204)
(227 166)
(168 227)
(225 168)
(223 170)
(219 173)
(173 222)
(171 223)
(222 171)
(169 225)
(175 203)
(205 178)
(176 205)
(213 181)
(179 213)
(209 179)
(178 209)
(183 211)
(182 211)
(214 182)
(181 214)
(201 186)
(184 201)
(198 187)
(190 210)
(189 207)
(210 191)
(199 189)
(215 193)
(191 215)
(221 195)
(194 221)
(220 194)
(193 220)
(196 230)
(0 1)
(1 2)
(2 0)
(5 3)
(4 5)
(7 4)
(6 7)
(8 9)
(9 10)
(13 11)
(12 13)
(15 12)
(14 15)
(16 17)
(17 18)
(18 16)
(20 19)
(3 20)
(8 21)
(21 9)
(22 10)
(9 22)
(16 23)
(24 25)
(25 14)
(19 18)
(27 24)
(26 27)
(22 28)
(20 18)
(29 30)
(30 26)
(23 21)
(31 28)
(22 31)
(31 32)
(34 29)
(33 34)
(5 20)
(35 32)
(31 35)
(37 33)
(36 37)
(38 39)
(39 36)
(35 40)
(7 5)
(42 38)
(41 42)
(43 40)
(35 43)
(43 44)
(0 41)
(6 45)
(45 7)
(46 44)
(43 46)
(47 2)
(11 45)
(49 50)
(50 47)
(13 45)
(52 49)
(51 52)
(15 13)
(16 21)
(53 54)
(54 51)
(55 56)
(56 53)
(27 25)
(25 15)
(58 55)
(57 58)
(59 60)
(60 57)
(34 30)
(30 27)
(61 62)
(62 59)
(64 61)
(37 34)
(64 62)
(65 59)
(62 65)
(65 60)
(42 39)
(39 37)
(58 56)
(56 54)
(60 58)
(0 42)
(52 50)
(50 2)
(54 52)
(67 62)
(62 66)
(43 68)
(69 35)
(31 69)
(70 31)
(22 70)
(71 35)
(43 71)
(72 22)
(9 72)
(73 9)
(21 73)
(74 21)
(16 74)
(75 16)
(18 75)
(76 18)
(20 76)
(77 20)
(5 77)
(78 5)
(7 78)
(79 7)
(45 79)
(80 45)
(13 80)
(81 13)
(15 81)
(82 15)
(25 82)
(83 25)
(27 83)
(84 27)
(30 84)
(85 30)
(34 85)
(86 34)
(37 86)
(87 37)
(39 87)
(88 39)
(42 88)
(89 42)
(0 89)
(90 0)
(2 90)
(91 2)
(50 91)
(92 50)
(52 92)
(93 52)
(54 93)
(94 54)
(56 94)
(95 56)
(58 95)
(96 58)
(60 96)
(97 60)
(65 97)
(67 65)
(98 65)
(101 99)
(99 100)
(104 102)
(103 104)
(107 105)
(106 107)
(105 106)
(109 106)
(108 109)
(106 108)
(110 105)
(104 110)
(104 105)
(112 108)
(111 112)
(108 111)
(114 111)
(113 114)
(111 113)
(116 113)
(115 116)
(113 115)
(118 115)
(117 118)
(115 117)
(120 117)
(119 120)
(117 119)
(122 119)
(121 122)
(119 121)
(124 121)
(123 124)
(121 123)
(126 123)
(125 126)
(123 125)
(128 125)
(127 128)
(125 127)
(130 127)
(129 130)
(127 129)
(132 129)
(131 132)
(129 131)
(134 131)
(133 134)
(131 133)
(136 133)
(135 136)
(133 135)
(138 135)
(137 138)
(135 137)
(140 137)
(139 140)
(137 139)
(142 139)
(141 142)
(139 141)
(144 141)
(143 144)
(141 143)
(146 143)
(145 146)
(143 145)
(148 145)
(147 148)
(145 147)
(150 147)
(149 150)
(147 149)
(152 149)
(151 152)
(149 151)
(154 151)
(153 154)
(151 153)
(156 153)
(155 156)
(153 155)
(158 155)
(157 158)
(155 157)
(160 157)
(159 160)
(157 159)
(162 159)
(161 162)
(159 161)
(101 161)
(161 99)
(99 163)
(164 161)
(165 153)
(151 165)
(166 104)
(167 104)
(168 105)
(105 167)
(169 105)
(108 170)
(171 108)
(111 171)
(172 111)
(106 169)
(170 106)
(173 113)
(113 172)
(115 173)
(174 115)
(176 121)
(121 175)
(177 121)
(117 174)
(175 117)
(123 177)
(178 123)
(125 178)
(179 125)
(181 129)
(129 180)
(131 181)
(182 131)
(127 179)
(180 127)
(119 175)
(133 182)
(183 133)
(135 183)
(184 135)
(137 184)
(185 137)
(139 185)
(186 139)
(141 186)
(187 141)
(143 187)
(188 143)
(189 145)
(145 188)
(147 189)
(190 147)
(149 190)
(165 149)
(191 153)
(192 153)
(194 157)
(157 193)
(195 159)
(159 194)
(155 192)
(193 155)
(196 161)
(161 195)
(99 196)
(197 99)
(3 199)
(199 198)
(41 202)
(203 41)
(202 203)
(17 206)
(206 19)
(207 17)
(23 207)
(205 202)
(33 209)
(209 208)
(8 210)
(210 23)
(10 212)
(212 8)
(29 213)
(213 209)
(215 10)
(28 215)
(217 1)
(203 217)
(217 47)
(32 218)
(218 28)
(217 219)
(216 213)
(40 220)
(220 32)
(221 40)
(44 221)
(214 216)
(19 199)
(208 205)
(51 222)
(223 51)
(225 55)
(227 59)
(226 227)
(225 226)
(227 228)
(48 229)
(229 44)
(211 214)
(207 206)
(206 199)
(198 186)
(186 204)
(226 168)
(224 170)
(170 225)
(217 173)
(227 167)
(172 222)
(203 176)
(174 203)
(217 174)
(177 205)
(180 213)
(211 184)
(185 201)
(187 199)
(199 188)
(210 165)
(207 190)
(202 176)
(200 184)
(208 178)
(216 181)
(192 215)
(221 196)
(229 196)
(218 193)
(212 191)
(206 189)
(46 48)
(63 64)
(66 67)
(68 46)
(69 71)
(71 68)
(70 69)
(72 70)
(73 72)
(74 73)
(75 74)
(76 75)
(77 76)
(78 77)
(79 78)
(80 79)
(81 80)
(82 81)
(83 82)
(84 83)
(85 84)
(86 85)
(87 86)
(88 87)
(89 88)
(90 89)
(91 90)
(92 91)
(93 92)
(94 93)
(95 94)
(96 95)
(97 96)
(64 66)
(67 98)
(98 97)
(100 101)
(102 103)
(107 110)
(110 102)
(109 107)
(112 109)
(114 112)
(116 114)
(118 116)
(120 118)
(122 120)
(124 122)
(126 124)
(128 126)
(130 128)
(132 130)
(134 132)
(136 134)
(138 136)
(140 138)
(142 140)
(144 142)
(146 144)
(148 146)
(150 148)
(152 150)
(154 152)
(156 154)
(158 156)
(160 158)
(162 160)
(163 100)
(101 164)
(164 162)
(103 166)
(197 163)
(228 63)
(48 230)
(166 228)
(230 197)
)

// * * * * * * * * * * * * * * * * * * * * * * * * * * * * * * * * * * * * * //


// ************************************************************************* //
