/*--------------------------------*- C++ -*----------------------------------*\
  =========                 |
  \\      /  F ield         | OpenFOAM: The Open Source CFD Toolbox
   \\    /   O peration     | Website:  https://openfoam.org
    \\  /    A nd           | Version:  9
     \\/     M anipulation  |
\*---------------------------------------------------------------------------*/
FoamFile
{
    format      ascii;
    class       extendedFeatureEdgeMesh;
    location    "constant/extendedFeatureEdgeMesh";
    object      Inlet.extendedFeatureEdgeMesh;
}
// * * * * * * * * * * * * * * * * * * * * * * * * * * * * * * * * * * * * * //

// points

36
(
(-1.5625 4.25 0)
(-1.875 4.4375 0)
(-1.5625 4.4375 0)
(-1.5625 5.1875 0)
(-1.875 5.375 0)
(-1.5625 5.375 0)
(-1.5625 4.8125 0)
(-1.875 5 0)
(-1.5625 5 0)
(-1.875 5.1875 0)
(-1.5625 4.625 0)
(-1.875 4.8125 0)
(-1.5625 5.5625 0)
(-1.875 5.75 0)
(-1.5625 5.75 0)
(-1.875 5.5625 0)
(-1.875 4.625 0)
(-1.25 4.4375 0)
(-1.25 4.625 0)
(-1.25 5.375 0)
(-1.25 5.5625 0)
(-1.25 5.75 0)
(-1.25 4.8125 0)
(-1.25 5 0)
(-1.25 5.1875 0)
(-1.25 4.25 0)
(-1.875 4.25 0)
(-2.1875 4.4375 0)
(-2.1875 5.375 0)
(-2.1875 5 0)
(-2.1875 5.1875 0)
(-2.1875 4.8125 0)
(-2.1875 5.75 0)
(-2.1875 5.5625 0)
(-2.1875 4.625 0)
(-2.1875 4.25 0)
)

// edges

83
(
(0 1)
(1 2)
(2 0)
(3 4)
(4 5)
(5 3)
(6 7)
(7 8)
(8 6)
(9 3)
(8 9)
(3 8)
(11 6)
(10 11)
(6 10)
(12 13)
(14 12)
(15 12)
(5 15)
(12 5)
(16 10)
(2 16)
(10 2)
(17 10)
(10 18)
(19 12)
(12 20)
(20 14)
(18 6)
(6 22)
(23 3)
(3 24)
(8 23)
(22 8)
(5 19)
(24 5)
(2 17)
(25 2)
(1 26)
(26 27)
(27 1)
(4 9)
(9 28)
(28 4)
(7 11)
(11 29)
(29 7)
(9 7)
(30 9)
(7 30)
(11 16)
(31 11)
(16 31)
(13 15)
(15 32)
(15 4)
(33 15)
(4 33)
(16 1)
(34 16)
(1 34)
(13 14)
(18 17)
(20 19)
(14 21)
(21 20)
(22 18)
(24 23)
(23 22)
(19 24)
(17 25)
(32 13)
(0 26)
(25 0)
(26 35)
(35 27)
(30 28)
(31 29)
(29 30)
(34 31)
(33 32)
(28 33)
(27 34)
)

// concaveStart mixedStart nonFeatureStart
0 0 36
// internalStart flatStart openStart multipleStart
0 0 61 83
// normals
48{(0 0 -1)}
// normal volume types

48
(
0
0
0
0
0
0
0
0
0
0
0
0
0
0
0
0
0
0
0
0
0
0
0
0
0
0
0
0
0
0
0
0
0
0
0
0
0
0
0
0
0
0
0
0
0
0
0
0
)

// normalDirections

83
(
2(1 -1)
2(1 -1)
2(1 -1)
2(1 -1)
2(1 -1)
2(1 -1)
2(1 -1)
2(1 -1)
2(1 -1)
2(1 -1)
2(1 -1)
2(1 -1)
2(1 -1)
2(1 -1)
2(1 -1)
2(1 -1)
2(1 -1)
2(1 -1)
2(1 -1)
2(1 -1)
2(1 -1)
2(1 -1)
2(1 -1)
2(1 -1)
2(1 -1)
2(1 -1)
2(1 -1)
2(1 -1)
2(1 -1)
2(1 -1)
2(1 -1)
2(1 -1)
2(1 -1)
2(1 -1)
2(1 -1)
2(1 -1)
2(1 -1)
2(1 -1)
2(1 -1)
2(1 -1)
2(1 -1)
2(1 -1)
2(1 -1)
2(1 -1)
2(1 -1)
2(1 -1)
2(1 -1)
2(1 -1)
2(1 -1)
2(1 -1)
2(1 -1)
2(1 -1)
2(1 -1)
2(1 -1)
2(1 -1)
2(1 -1)
2(1 -1)
2(1 -1)
2(1 -1)
2(1 -1)
2(1 -1)
1(1)
1(1)
1(1)
1(1)
1(1)
1(1)
1(1)
1(1)
1(1)
1(1)
1(1)
1(1)
1(1)
1(1)
1(1)
1(1)
1(1)
1(1)
1(1)
1(1)
1(1)
1(1)
)

// edgeNormals

83
(
2(20 10)
2(20 21)
2(20 11)
2(22 23)
2(22 24)
2(22 25)
2(26 27)
2(26 28)
2(26 29)
2(30 23)
2(30 28)
2(30 31)
2(32 27)
2(32 33)
2(32 34)
2(0 35)
2(0 36)
2(37 35)
2(37 24)
2(37 38)
2(39 33)
2(39 21)
2(39 40)
2(1 40)
2(1 34)
2(2 38)
2(2 36)
2(3 36)
2(4 34)
2(4 29)
2(5 31)
2(5 25)
2(6 31)
2(6 29)
2(7 38)
2(7 25)
2(8 40)
2(8 11)
2(41 10)
2(41 12)
2(41 19)
2(42 23)
2(42 13)
2(42 18)
2(43 27)
2(43 14)
2(43 15)
2(44 28)
2(44 13)
2(44 15)
2(45 33)
2(45 14)
2(45 16)
2(9 35)
2(9 17)
2(46 24)
2(46 17)
2(46 18)
2(47 21)
2(47 16)
2(47 19)
1(0)
1(1)
1(2)
1(3)
1(3)
1(4)
1(5)
1(6)
1(7)
1(8)
1(9)
1(10)
1(11)
1(12)
1(12)
1(13)
1(14)
1(15)
1(16)
1(17)
1(18)
1(19)
)

// featurePointNormals

36
(
1(20)
1(20)
1(20)
1(22)
1(22)
1(22)
1(26)
1(26)
1(26)
1(30)
1(32)
1(32)
1(0)
1(0)
1(0)
1(37)
1(39)
1(1)
1(1)
1(2)
1(2)
1(3)
1(4)
1(5)
1(5)
1(8)
1(41)
1(41)
1(42)
1(43)
1(44)
1(45)
1(9)
1(46)
1(47)
1(12)
)

// featurePointEdges

36
(
4(0 2 72 73)
6(0 38 40 60 58 1)
6(1 21 22 36 37 2)
6(3 9 11 30 31 5)
6(3 41 43 57 55 4)
6(4 18 19 34 35 5)
6(6 12 14 28 29 8)
6(6 44 46 49 47 7)
6(7 10 11 32 33 8)
6(9 41 42 48 47 10)
6(13 20 22 23 24 14)
6(12 44 45 51 50 13)
6(15 17 19 25 26 16)
4(15 53 61 71)
4(16 27 61 64)
6(17 53 54 56 55 18)
6(20 50 52 59 58 21)
4(23 36 62 70)
4(24 28 62 66)
4(25 34 63 69)
4(26 27 63 65)
2(64 65)
4(29 33 66 68)
4(30 32 67 68)
4(31 35 67 69)
3(37 70 73)
4(38 39 72 74)
4(39 40 75 82)
4(42 43 76 81)
4(45 46 77 78)
4(48 49 76 78)
4(51 52 77 79)
3(54 71 80)
4(56 57 80 81)
4(59 60 79 82)
2(74 75)
)

// regionEdges

22
(
61
62
63
64
65
66
67
68
69
70
71
72
73
74
75
76
77
78
79
80
81
82
)



// ************************************************************************* //
