/*--------------------------------*- C++ -*----------------------------------*\
  =========                 |
  \\      /  F ield         | OpenFOAM: The Open Source CFD Toolbox
   \\    /   O peration     | Website:  https://openfoam.org
    \\  /    A nd           | Version:  9
     \\/     M anipulation  |
\*---------------------------------------------------------------------------*/
FoamFile
{
    format      ascii;
    class       featureEdgeMesh;
    location    "constant/triSurface";
    object      Concrete_sides.eMesh;
}
// * * * * * * * * * * * * * * * * * * * * * * * * * * * * * * * * * * * * * //


// points:

1969
(
(48.4375 8 5.04346)
(49.2188 8 5.75391)
(48.4375 8 5.76172)
(35.1562 8 5.17627)
(35.9375 8 5.88672)
(35.1562 8 5.89454)
(9.375 8 5.43409)
(10.1562 8 6.14454)
(9.375 8 6.15235)
(46.0938 8 5.0669)
(46.875 8 5.77735)
(46.0938 8 5.78516)
(15.625 8 5.37159)
(16.4062 8 6.08204)
(15.625 8 6.08985)
(20.3125 8 5.32471)
(21.0938 8 6.03516)
(20.3125 8 6.04297)
(7.03125 8 5.45752)
(7.8125 8 6.16797)
(7.03125 8 6.17579)
(13.2812 8 5.39502)
(14.0625 8 6.10547)
(13.2812 8 6.11329)
(41.4062 8 5.11377)
(42.1875 8 5.82422)
(41.4062 8 5.83204)
(34.375 8 5.18409)
(34.375 8 5.90235)
(32.0312 8 5.20752)
(32.8125 8 5.91797)
(32.0312 8 5.92579)
(45.3125 8 5.07471)
(45.3125 8 5.79297)
(6.25 8 5.46534)
(6.25 8 6.1836)
(12.5 8 5.40284)
(12.5 8 6.1211)
(22.6562 8 5.30127)
(23.4375 8 6.01172)
(22.6562 8 6.01954)
(5.46875 8 5.47315)
(5.46875 8 6.19141)
(40.625 8 5.12159)
(40.625 8 5.83985)
(31.25 8 5.21534)
(31.25 8 5.9336)
(38.2812 8 5.14502)
(39.0625 8 5.85547)
(38.2812 8 5.86329)
(47.6562 8 5.05127)
(47.6562 8 5.76954)
(21.875 8 5.30909)
(21.875 8 6.02735)
(4.6875 8 5.48096)
(4.6875 8 6.19922)
(19.5312 8 5.33252)
(19.5312 8 6.05079)
(2.34375 8 5.5044)
(3.125 8 6.21485)
(2.34375 8 6.22266)
(37.5 8 5.15284)
(37.5 8 5.8711)
(30.4688 8 5.22315)
(30.4688 8 5.94141)
(46.875 8 5.05909)
(44.5312 8 5.08252)
(44.5312 8 5.80079)
(18.75 8 5.34034)
(18.75 8 6.0586)
(1.5625 8 5.51221)
(1.5625 8 6.23047)
(29.6875 8 5.23096)
(29.6875 8 5.94922)
(43.75 8 5.09034)
(43.75 8 5.8086)
(27.3438 8 5.2544)
(28.125 8 5.96485)
(27.3438 8 5.97266)
(3.90625 8 5.48877)
(3.90625 8 6.20704)
(26.5625 8 5.26221)
(26.5625 8 5.98047)
(3.125 8 5.49659)
(0.78125 8 5.52002)
(0.78125 8 6.23829)
(11.7188 8 5.41065)
(11.7188 8 6.12891)
(17.9688 8 5.34815)
(17.9688 8 6.06641)
(28.9062 8 5.23877)
(28.9062 8 5.95704)
(0 8 5.52784)
(0 8 6.2461)
(36.7188 8 5.16065)
(36.7188 8 5.87891)
(10.9375 8 5.41846)
(10.9375 8 6.13672)
(17.1875 8 5.35596)
(17.1875 8 6.07422)
(8.59375 8 5.4419)
(8.59375 8 6.16016)
(28.125 8 5.24659)
(14.8438 8 5.3794)
(14.8438 8 6.09766)
(25.7812 8 5.27002)
(25.7812 8 5.98829)
(42.9688 8 5.09815)
(42.9688 8 5.81641)
(35.9375 8 5.16846)
(33.5938 8 5.1919)
(33.5938 8 5.91016)
(7.8125 8 5.44971)
(14.0625 8 5.38721)
(25 8 5.27784)
(25 8 5.9961)
(24.2188 8 5.28565)
(24.2188 8 6.00391)
(42.1875 8 5.10596)
(39.8438 8 5.1294)
(39.8438 8 5.84766)
(32.8125 8 5.19971)
(23.4375 8 5.29346)
(10.1562 8 5.42627)
(16.4062 8 5.36377)
(21.0938 8 5.3169)
(39.0625 8 5.13721)
(39.0625 8 2.26416)
(39.8438 8 2.97461)
(39.0625 8 2.98242)
(21.0938 8 2.44385)
(21.875 8 3.1543)
(21.0938 8 3.16211)
(16.4062 8 2.49073)
(17.1875 8 3.20117)
(16.4062 8 3.20899)
(10.1562 8 2.55323)
(10.9375 8 3.26367)
(10.1562 8 3.27149)
(23.4375 8 2.42041)
(24.2188 8 3.13086)
(23.4375 8 3.13867)
(32.8125 8 2.32666)
(33.5938 8 3.03711)
(32.8125 8 3.04492)
(39.8438 8 2.25635)
(40.625 8 2.9668)
(42.1875 8 2.23291)
(42.9688 8 2.94336)
(42.1875 8 2.95117)
(24.2188 8 2.4126)
(25 8 3.12305)
(25 8 2.40479)
(25.7812 8 3.11524)
(14.0625 8 2.51416)
(14.8438 8 3.22461)
(14.0625 8 3.23242)
(7.8125 8 2.57666)
(8.59375 8 3.28711)
(7.8125 8 3.29492)
(33.5938 8 2.31885)
(34.375 8 3.0293)
(35.9375 8 2.29541)
(36.7188 8 3.00586)
(35.9375 8 3.01367)
(42.9688 8 2.2251)
(43.75 8 2.93555)
(25.7812 8 2.39698)
(26.5625 8 3.10742)
(14.8438 8 2.50635)
(15.625 8 3.2168)
(28.125 8 2.37354)
(28.9062 8 3.08399)
(28.125 8 3.0918)
(8.59375 8 2.56885)
(9.375 8 3.2793)
(17.1875 8 2.48291)
(17.9688 8 3.19336)
(10.9375 8 2.54541)
(11.7188 8 3.25586)
(36.7188 8 2.2876)
(37.5 8 2.99805)
(0 8 2.65479)
(0.78125 8 3.36524)
(0 8 3.37305)
(28.9062 8 2.36573)
(29.6875 8 3.07617)
(17.9688 8 2.4751)
(18.75 8 3.18555)
(11.7188 8 2.5376)
(12.5 8 3.24805)
(0.78125 8 2.64698)
(1.5625 8 3.35742)
(3.125 8 2.62354)
(3.90625 8 3.33399)
(3.125 8 3.3418)
(26.5625 8 2.38916)
(27.3438 8 3.09961)
(3.90625 8 2.61573)
(4.6875 8 3.32617)
(27.3438 8 2.38135)
(43.75 8 2.21729)
(44.5312 8 2.92774)
(29.6875 8 2.35791)
(30.4688 8 3.06836)
(1.5625 8 2.63916)
(2.34375 8 3.34961)
(18.75 8 2.46729)
(19.5312 8 3.17774)
(44.5312 8 2.20948)
(45.3125 8 2.91992)
(46.875 8 2.18604)
(47.6562 8 2.89649)
(46.875 8 2.9043)
(30.4688 8 2.3501)
(31.25 8 3.06055)
(37.5 8 2.27979)
(38.2812 8 2.99024)
(2.34375 8 2.63135)
(19.5312 8 2.45948)
(20.3125 8 3.16992)
(4.6875 8 2.60791)
(5.46875 8 3.31836)
(21.875 8 2.43604)
(22.6562 8 3.14649)
(47.6562 8 2.17823)
(48.4375 8 2.88867)
(38.2812 8 2.27198)
(31.25 8 2.34229)
(32.0312 8 3.05274)
(40.625 8 2.24854)
(41.4062 8 2.95899)
(5.46875 8 2.6001)
(6.25 8 3.31055)
(22.6562 8 2.42823)
(12.5 8 2.52979)
(13.2812 8 3.24024)
(6.25 8 2.59229)
(7.03125 8 3.30274)
(45.3125 8 2.20166)
(46.0938 8 2.91211)
(32.0312 8 2.33448)
(34.375 8 2.31104)
(35.1562 8 3.02149)
(41.4062 8 2.24073)
(13.2812 8 2.52198)
(7.03125 8 2.58448)
(20.3125 8 2.45166)
(15.625 8 2.49854)
(46.0938 8 2.19385)
(9.375 8 2.56104)
(35.1562 8 2.30323)
(48.4375 8 2.17041)
(49.2188 8 2.88086)
(48.4375 8 0.733887)
(49.2188 8 1.44434)
(48.4375 8 1.45215)
(35.1562 8 0.8667)
(35.9375 8 1.57715)
(35.1562 8 1.58496)
(9.375 8 1.12451)
(10.1562 8 1.83496)
(9.375 8 1.84277)
(46.0938 8 0.757325)
(46.875 8 1.46777)
(46.0938 8 1.47559)
(15.625 8 1.06201)
(16.4062 8 1.77246)
(15.625 8 1.78027)
(20.3125 8 1.01514)
(21.0938 8 1.72559)
(20.3125 8 1.7334)
(7.03125 8 1.14795)
(7.8125 8 1.8584)
(7.03125 8 1.86621)
(13.2812 8 1.08545)
(14.0625 8 1.7959)
(13.2812 8 1.80371)
(41.4062 8 0.8042)
(42.1875 8 1.51465)
(41.4062 8 1.52246)
(34.375 8 0.874512)
(34.375 8 1.59277)
(32.0312 8 0.89795)
(32.8125 8 1.6084)
(32.0312 8 1.61621)
(45.3125 8 0.765137)
(45.3125 8 1.4834)
(6.25 8 1.15576)
(6.25 8 1.87402)
(12.5 8 1.09326)
(12.5 8 1.81152)
(22.6562 8 0.9917)
(23.4375 8 1.70215)
(22.6562 8 1.70996)
(5.46875 8 1.16358)
(5.46875 8 1.88184)
(40.625 8 0.812012)
(40.625 8 1.53027)
(31.25 8 0.905762)
(31.25 8 1.62402)
(38.2812 8 0.83545)
(39.0625 8 1.5459)
(38.2812 8 1.55371)
(47.6562 8 0.7417)
(47.6562 8 1.45996)
(21.875 8 0.999512)
(21.875 8 1.71777)
(4.6875 8 1.17139)
(4.6875 8 1.88965)
(19.5312 8 1.02295)
(19.5312 8 1.74121)
(2.34375 8 1.19483)
(3.125 8 1.90527)
(2.34375 8 1.91309)
(37.5 8 0.843262)
(37.5 8 1.56152)
(30.4688 8 0.913575)
(30.4688 8 1.63184)
(46.875 8 0.749512)
(44.5312 8 0.77295)
(44.5312 8 1.49121)
(18.75 8 1.03076)
(18.75 8 1.74902)
(1.5625 8 1.20264)
(1.5625 8 1.9209)
(29.6875 8 0.921387)
(29.6875 8 1.63965)
(43.75 8 0.780762)
(43.75 8 1.49902)
(27.3438 8 0.944825)
(28.125 8 1.65527)
(27.3438 8 1.66309)
(3.90625 8 1.1792)
(3.90625 8 1.89746)
(26.5625 8 0.952637)
(26.5625 8 1.6709)
(3.125 8 1.18701)
(0.78125 8 1.21045)
(0.78125 8 1.92871)
(11.7188 8 1.10108)
(11.7188 8 1.81934)
(17.9688 8 1.03858)
(17.9688 8 1.75684)
(28.9062 8 0.9292)
(28.9062 8 1.64746)
(0 8 1.21826)
(0 8 1.93652)
(36.7188 8 0.851075)
(36.7188 8 1.56934)
(10.9375 8 1.10889)
(10.9375 8 1.82715)
(17.1875 8 1.04639)
(17.1875 8 1.76465)
(8.59375 8 1.13233)
(8.59375 8 1.85059)
(28.125 8 0.937012)
(14.8438 8 1.06983)
(14.8438 8 1.78809)
(25.7812 8 0.96045)
(25.7812 8 1.67871)
(42.9688 8 0.788575)
(42.9688 8 1.50684)
(35.9375 8 0.858887)
(33.5938 8 0.882325)
(33.5938 8 1.60059)
(7.8125 8 1.14014)
(14.0625 8 1.07764)
(25 8 0.968262)
(25 8 1.68652)
(24.2188 8 0.976075)
(24.2188 8 1.69434)
(42.1875 8 0.796387)
(39.8438 8 0.819825)
(39.8438 8 1.53809)
(32.8125 8 0.890137)
(23.4375 8 0.983887)
(10.1562 8 1.1167)
(16.4062 8 1.0542)
(21.0938 8 1.00733)
(39.0625 8 0.827637)
(39.0625 8 3.70069)
(39.8438 8 4.41114)
(39.0625 8 4.41895)
(21.0938 8 3.88037)
(21.875 8 4.59082)
(21.0938 8 4.59864)
(16.4062 8 3.92725)
(17.1875 8 4.6377)
(16.4062 8 4.64551)
(10.1562 8 3.98975)
(10.9375 8 4.7002)
(10.1562 8 4.70801)
(23.4375 8 3.85694)
(24.2188 8 4.56739)
(23.4375 8 4.5752)
(32.8125 8 3.76319)
(33.5938 8 4.47364)
(32.8125 8 4.48145)
(39.8438 8 3.69287)
(40.625 8 4.40332)
(42.1875 8 3.66944)
(42.9688 8 4.37989)
(42.1875 8 4.3877)
(24.2188 8 3.84912)
(25 8 4.55957)
(25 8 3.84131)
(25.7812 8 4.55176)
(14.0625 8 3.95069)
(14.8438 8 4.66114)
(14.0625 8 4.66895)
(7.8125 8 4.01319)
(8.59375 8 4.72364)
(7.8125 8 4.73145)
(33.5938 8 3.75537)
(34.375 8 4.46582)
(35.9375 8 3.73194)
(36.7188 8 4.44239)
(35.9375 8 4.4502)
(42.9688 8 3.66162)
(43.75 8 4.37207)
(25.7812 8 3.8335)
(26.5625 8 4.54395)
(14.8438 8 3.94287)
(15.625 8 4.65332)
(28.125 8 3.81006)
(28.9062 8 4.52051)
(28.125 8 4.52832)
(8.59375 8 4.00537)
(9.375 8 4.71582)
(17.1875 8 3.91944)
(17.9688 8 4.62989)
(10.9375 8 3.98194)
(11.7188 8 4.69239)
(36.7188 8 3.72412)
(37.5 8 4.43457)
(0 8 4.09131)
(0.78125 8 4.80176)
(0 8 4.80957)
(28.9062 8 3.80225)
(29.6875 8 4.5127)
(17.9688 8 3.91162)
(18.75 8 4.62207)
(11.7188 8 3.97412)
(12.5 8 4.68457)
(0.78125 8 4.0835)
(1.5625 8 4.79395)
(3.125 8 4.06006)
(3.90625 8 4.77051)
(3.125 8 4.77832)
(26.5625 8 3.82569)
(27.3438 8 4.53614)
(3.90625 8 4.05225)
(4.6875 8 4.7627)
(27.3438 8 3.81787)
(43.75 8 3.65381)
(44.5312 8 4.36426)
(29.6875 8 3.79444)
(30.4688 8 4.50489)
(1.5625 8 4.07569)
(2.34375 8 4.78614)
(18.75 8 3.90381)
(19.5312 8 4.61426)
(44.5312 8 3.646)
(45.3125 8 4.35645)
(46.875 8 3.62256)
(47.6562 8 4.33301)
(46.875 8 4.34082)
(30.4688 8 3.78662)
(31.25 8 4.49707)
(37.5 8 3.71631)
(38.2812 8 4.42676)
(2.34375 8 4.06787)
(19.5312 8 3.896)
(20.3125 8 4.60645)
(4.6875 8 4.04444)
(5.46875 8 4.75489)
(21.875 8 3.87256)
(22.6562 8 4.58301)
(47.6562 8 3.61475)
(48.4375 8 4.3252)
(38.2812 8 3.7085)
(31.25 8 3.77881)
(32.0312 8 4.48926)
(40.625 8 3.68506)
(41.4062 8 4.39551)
(5.46875 8 4.03662)
(6.25 8 4.74707)
(22.6562 8 3.86475)
(12.5 8 3.96631)
(13.2812 8 4.67676)
(6.25 8 4.02881)
(7.03125 8 4.73926)
(45.3125 8 3.63819)
(46.0938 8 4.34864)
(32.0312 8 3.771)
(34.375 8 3.74756)
(35.1562 8 4.45801)
(41.4062 8 3.67725)
(13.2812 8 3.9585)
(7.03125 8 4.021)
(20.3125 8 3.88819)
(15.625 8 3.93506)
(46.0938 8 3.63037)
(9.375 8 3.99756)
(35.1562 8 3.73975)
(48.4375 8 3.60694)
(49.2188 8 4.31739)
(49.2188 8 3.59912)
(39.0625 8 0.109375)
(21.0938 8 0.289062)
(16.4062 8 0.335937)
(10.1562 8 0.398437)
(23.4375 8 0.265625)
(32.8125 8 0.171875)
(39.8438 8 0.101562)
(42.1875 8 0.078125)
(24.2188 8 0.257812)
(25 8 0.25)
(14.0625 8 0.359375)
(7.8125 8 0.421875)
(33.5938 8 0.164062)
(35.9375 8 0.140625)
(42.9688 8 0.070312)
(25.7812 8 0.242187)
(14.8438 8 0.351562)
(28.125 8 0.21875)
(8.59375 8 0.414062)
(17.1875 8 0.328125)
(10.9375 8 0.390625)
(36.7188 8 0.132812)
(0 8 0.5)
(28.9062 8 0.210937)
(17.9688 8 0.320312)
(11.7188 8 0.382812)
(0.78125 8 0.492187)
(3.125 8 0.46875)
(26.5625 8 0.234375)
(3.90625 8 0.460937)
(27.3438 8 0.226562)
(43.75 8 0.0625)
(29.6875 8 0.203125)
(1.5625 8 0.484375)
(18.75 8 0.3125)
(44.5312 8 0.054687)
(46.875 8 0.03125)
(30.4688 8 0.195312)
(37.5 8 0.125)
(2.34375 8 0.476562)
(19.5312 8 0.304687)
(4.6875 8 0.453125)
(21.875 8 0.28125)
(47.6562 8 0.023437)
(38.2812 8 0.117187)
(31.25 8 0.1875)
(40.625 8 0.09375)
(5.46875 8 0.445312)
(22.6562 8 0.273437)
(12.5 8 0.375)
(6.25 8 0.4375)
(45.3125 8 0.046875)
(32.0312 8 0.179687)
(34.375 8 0.15625)
(41.4062 8 0.085937)
(13.2812 8 0.367187)
(7.03125 8 0.429687)
(20.3125 8 0.296875)
(15.625 8 0.34375)
(46.0938 8 0.039062)
(9.375 8 0.40625)
(35.1562 8 0.148437)
(48.4375 8 0.015625)
(49.2188 8 0.726074)
(49.2188 8 2.1626)
(49.2188 8 5.03565)
(49.2188 8 0.007812)
(48.4375 2 5.04346)
(49.2188 2 5.75391)
(48.4375 2 5.76172)
(35.1562 2 5.17627)
(35.9375 2 5.88672)
(35.1562 2 5.89454)
(9.375 2 5.43409)
(10.1562 2 6.14454)
(9.375 2 6.15235)
(46.0938 2 5.0669)
(46.875 2 5.77735)
(46.0938 2 5.78516)
(15.625 2 5.37159)
(16.4062 2 6.08204)
(15.625 2 6.08985)
(20.3125 2 5.32471)
(21.0938 2 6.03516)
(20.3125 2 6.04297)
(7.03125 2 5.45752)
(7.8125 2 6.16797)
(7.03125 2 6.17579)
(13.2812 2 5.39502)
(14.0625 2 6.10547)
(13.2812 2 6.11329)
(41.4062 2 5.11377)
(42.1875 2 5.82422)
(41.4062 2 5.83204)
(34.375 2 5.18409)
(34.375 2 5.90235)
(32.0312 2 5.20752)
(32.8125 2 5.91797)
(32.0312 2 5.92579)
(45.3125 2 5.07471)
(45.3125 2 5.79297)
(6.25 2 5.46534)
(6.25 2 6.1836)
(12.5 2 5.40284)
(12.5 2 6.1211)
(22.6562 2 5.30127)
(23.4375 2 6.01172)
(22.6562 2 6.01954)
(5.46875 2 5.47315)
(5.46875 2 6.19141)
(40.625 2 5.12159)
(40.625 2 5.83985)
(31.25 2 5.21534)
(31.25 2 5.9336)
(38.2812 2 5.14502)
(39.0625 2 5.85547)
(38.2812 2 5.86329)
(47.6562 2 5.05127)
(47.6562 2 5.76954)
(21.875 2 5.30909)
(21.875 2 6.02735)
(4.6875 2 5.48096)
(4.6875 2 6.19922)
(19.5312 2 5.33252)
(19.5312 2 6.05079)
(2.34375 2 5.5044)
(3.125 2 6.21485)
(2.34375 2 6.22266)
(37.5 2 5.15284)
(37.5 2 5.8711)
(30.4688 2 5.22315)
(30.4688 2 5.94141)
(46.875 2 5.05909)
(44.5312 2 5.08252)
(44.5312 2 5.80079)
(18.75 2 5.34034)
(18.75 2 6.0586)
(1.5625 2 5.51221)
(1.5625 2 6.23047)
(29.6875 2 5.23096)
(29.6875 2 5.94922)
(43.75 2 5.09034)
(43.75 2 5.8086)
(27.3438 2 5.2544)
(28.125 2 5.96485)
(27.3438 2 5.97266)
(3.90625 2 5.48877)
(3.90625 2 6.20704)
(26.5625 2 5.26221)
(26.5625 2 5.98047)
(3.125 2 5.49659)
(0.78125 2 5.52002)
(0.78125 2 6.23829)
(11.7188 2 5.41065)
(11.7188 2 6.12891)
(17.9688 2 5.34815)
(17.9688 2 6.06641)
(28.9062 2 5.23877)
(28.9062 2 5.95704)
(0 2 5.52784)
(0 2 6.2461)
(36.7188 2 5.16065)
(36.7188 2 5.87891)
(10.9375 2 5.41846)
(10.9375 2 6.13672)
(17.1875 2 5.35596)
(17.1875 2 6.07422)
(8.59375 2 5.4419)
(8.59375 2 6.16016)
(28.125 2 5.24659)
(14.8438 2 5.3794)
(14.8438 2 6.09766)
(25.7812 2 5.27002)
(25.7812 2 5.98829)
(42.9688 2 5.09815)
(42.9688 2 5.81641)
(35.9375 2 5.16846)
(33.5938 2 5.1919)
(33.5938 2 5.91016)
(7.8125 2 5.44971)
(14.0625 2 5.38721)
(25 2 5.27784)
(25 2 5.9961)
(24.2188 2 5.28565)
(24.2188 2 6.00391)
(42.1875 2 5.10596)
(39.8438 2 5.1294)
(39.8438 2 5.84766)
(32.8125 2 5.19971)
(23.4375 2 5.29346)
(10.1562 2 5.42627)
(16.4062 2 5.36377)
(21.0938 2 5.3169)
(39.0625 2 5.13721)
(39.0625 2 2.26416)
(39.8438 2 2.97461)
(39.0625 2 2.98242)
(21.0938 2 2.44385)
(21.875 2 3.1543)
(21.0938 2 3.16211)
(16.4062 2 2.49073)
(17.1875 2 3.20117)
(16.4062 2 3.20899)
(10.1562 2 2.55323)
(10.9375 2 3.26367)
(10.1562 2 3.27149)
(23.4375 2 2.42041)
(24.2188 2 3.13086)
(23.4375 2 3.13867)
(32.8125 2 2.32666)
(33.5938 2 3.03711)
(32.8125 2 3.04492)
(39.8438 2 2.25635)
(40.625 2 2.9668)
(42.1875 2 2.23291)
(42.9688 2 2.94336)
(42.1875 2 2.95117)
(24.2188 2 2.4126)
(25 2 3.12305)
(25 2 2.40479)
(25.7812 2 3.11524)
(14.0625 2 2.51416)
(14.8438 2 3.22461)
(14.0625 2 3.23242)
(7.8125 2 2.57666)
(8.59375 2 3.28711)
(7.8125 2 3.29492)
(33.5938 2 2.31885)
(34.375 2 3.0293)
(35.9375 2 2.29541)
(36.7188 2 3.00586)
(35.9375 2 3.01367)
(42.9688 2 2.2251)
(43.75 2 2.93555)
(25.7812 2 2.39698)
(26.5625 2 3.10742)
(14.8438 2 2.50635)
(15.625 2 3.2168)
(28.125 2 2.37354)
(28.9062 2 3.08399)
(28.125 2 3.0918)
(8.59375 2 2.56885)
(9.375 2 3.2793)
(17.1875 2 2.48291)
(17.9688 2 3.19336)
(10.9375 2 2.54541)
(11.7188 2 3.25586)
(36.7188 2 2.2876)
(37.5 2 2.99805)
(0 2 2.65479)
(0.78125 2 3.36524)
(0 2 3.37305)
(28.9062 2 2.36573)
(29.6875 2 3.07617)
(17.9688 2 2.4751)
(18.75 2 3.18555)
(11.7188 2 2.5376)
(12.5 2 3.24805)
(0.78125 2 2.64698)
(1.5625 2 3.35742)
(3.125 2 2.62354)
(3.90625 2 3.33399)
(3.125 2 3.3418)
(26.5625 2 2.38916)
(27.3438 2 3.09961)
(3.90625 2 2.61573)
(4.6875 2 3.32617)
(27.3438 2 2.38135)
(43.75 2 2.21729)
(44.5312 2 2.92774)
(29.6875 2 2.35791)
(30.4688 2 3.06836)
(1.5625 2 2.63916)
(2.34375 2 3.34961)
(18.75 2 2.46729)
(19.5312 2 3.17774)
(44.5312 2 2.20948)
(45.3125 2 2.91992)
(46.875 2 2.18604)
(47.6562 2 2.89649)
(46.875 2 2.9043)
(30.4688 2 2.3501)
(31.25 2 3.06055)
(37.5 2 2.27979)
(38.2812 2 2.99024)
(2.34375 2 2.63135)
(19.5312 2 2.45948)
(20.3125 2 3.16992)
(4.6875 2 2.60791)
(5.46875 2 3.31836)
(21.875 2 2.43604)
(22.6562 2 3.14649)
(47.6562 2 2.17823)
(48.4375 2 2.88867)
(38.2812 2 2.27198)
(31.25 2 2.34229)
(32.0312 2 3.05274)
(40.625 2 2.24854)
(41.4062 2 2.95899)
(5.46875 2 2.6001)
(6.25 2 3.31055)
(22.6562 2 2.42823)
(12.5 2 2.52979)
(13.2812 2 3.24024)
(6.25 2 2.59229)
(7.03125 2 3.30274)
(45.3125 2 2.20166)
(46.0938 2 2.91211)
(32.0312 2 2.33448)
(34.375 2 2.31104)
(35.1562 2 3.02149)
(41.4062 2 2.24073)
(13.2812 2 2.52198)
(7.03125 2 2.58448)
(20.3125 2 2.45166)
(15.625 2 2.49854)
(46.0938 2 2.19385)
(9.375 2 2.56104)
(35.1562 2 2.30323)
(48.4375 2 2.17041)
(49.2188 2 2.88086)
(48.4375 2 0.733887)
(49.2188 2 1.44434)
(48.4375 2 1.45215)
(35.1562 2 0.8667)
(35.9375 2 1.57715)
(35.1562 2 1.58496)
(9.375 2 1.12451)
(10.1562 2 1.83496)
(9.375 2 1.84277)
(46.0938 2 0.757325)
(46.875 2 1.46777)
(46.0938 2 1.47559)
(15.625 2 1.06201)
(16.4062 2 1.77246)
(15.625 2 1.78027)
(20.3125 2 1.01514)
(21.0938 2 1.72559)
(20.3125 2 1.7334)
(7.03125 2 1.14795)
(7.8125 2 1.8584)
(7.03125 2 1.86621)
(13.2812 2 1.08545)
(14.0625 2 1.7959)
(13.2812 2 1.80371)
(41.4062 2 0.8042)
(42.1875 2 1.51465)
(41.4062 2 1.52246)
(34.375 2 0.874512)
(34.375 2 1.59277)
(32.0312 2 0.89795)
(32.8125 2 1.6084)
(32.0312 2 1.61621)
(45.3125 2 0.765137)
(45.3125 2 1.4834)
(6.25 2 1.15576)
(6.25 2 1.87402)
(12.5 2 1.09326)
(12.5 2 1.81152)
(22.6562 2 0.9917)
(23.4375 2 1.70215)
(22.6562 2 1.70996)
(5.46875 2 1.16358)
(5.46875 2 1.88184)
(40.625 2 0.812012)
(40.625 2 1.53027)
(31.25 2 0.905762)
(31.25 2 1.62402)
(38.2812 2 0.83545)
(39.0625 2 1.5459)
(38.2812 2 1.55371)
(47.6562 2 0.7417)
(47.6562 2 1.45996)
(21.875 2 0.999512)
(21.875 2 1.71777)
(4.6875 2 1.17139)
(4.6875 2 1.88965)
(19.5312 2 1.02295)
(19.5312 2 1.74121)
(2.34375 2 1.19483)
(3.125 2 1.90527)
(2.34375 2 1.91309)
(37.5 2 0.843262)
(37.5 2 1.56152)
(30.4688 2 0.913575)
(30.4688 2 1.63184)
(46.875 2 0.749512)
(44.5312 2 0.77295)
(44.5312 2 1.49121)
(18.75 2 1.03076)
(18.75 2 1.74902)
(1.5625 2 1.20264)
(1.5625 2 1.9209)
(29.6875 2 0.921387)
(29.6875 2 1.63965)
(43.75 2 0.780762)
(43.75 2 1.49902)
(27.3438 2 0.944825)
(28.125 2 1.65527)
(27.3438 2 1.66309)
(3.90625 2 1.1792)
(3.90625 2 1.89746)
(26.5625 2 0.952637)
(26.5625 2 1.6709)
(3.125 2 1.18701)
(0.78125 2 1.21045)
(0.78125 2 1.92871)
(11.7188 2 1.10108)
(11.7188 2 1.81934)
(17.9688 2 1.03858)
(17.9688 2 1.75684)
(28.9062 2 0.9292)
(28.9062 2 1.64746)
(0 2 1.21826)
(0 2 1.93652)
(36.7188 2 0.851075)
(36.7188 2 1.56934)
(10.9375 2 1.10889)
(10.9375 2 1.82715)
(17.1875 2 1.04639)
(17.1875 2 1.76465)
(8.59375 2 1.13233)
(8.59375 2 1.85059)
(28.125 2 0.937012)
(14.8438 2 1.06983)
(14.8438 2 1.78809)
(25.7812 2 0.96045)
(25.7812 2 1.67871)
(42.9688 2 0.788575)
(42.9688 2 1.50684)
(35.9375 2 0.858887)
(33.5938 2 0.882325)
(33.5938 2 1.60059)
(7.8125 2 1.14014)
(14.0625 2 1.07764)
(25 2 0.968262)
(25 2 1.68652)
(24.2188 2 0.976075)
(24.2188 2 1.69434)
(42.1875 2 0.796387)
(39.8438 2 0.819825)
(39.8438 2 1.53809)
(32.8125 2 0.890137)
(23.4375 2 0.983887)
(10.1562 2 1.1167)
(16.4062 2 1.0542)
(21.0938 2 1.00733)
(39.0625 2 0.827637)
(39.0625 2 3.70069)
(39.8438 2 4.41114)
(39.0625 2 4.41895)
(21.0938 2 3.88037)
(21.875 2 4.59082)
(21.0938 2 4.59864)
(16.4062 2 3.92725)
(17.1875 2 4.6377)
(16.4062 2 4.64551)
(10.1562 2 3.98975)
(10.9375 2 4.7002)
(10.1562 2 4.70801)
(23.4375 2 3.85694)
(24.2188 2 4.56739)
(23.4375 2 4.5752)
(32.8125 2 3.76319)
(33.5938 2 4.47364)
(32.8125 2 4.48145)
(39.8438 2 3.69287)
(40.625 2 4.40332)
(42.1875 2 3.66944)
(42.9688 2 4.37989)
(42.1875 2 4.3877)
(24.2188 2 3.84912)
(25 2 4.55957)
(25 2 3.84131)
(25.7812 2 4.55176)
(14.0625 2 3.95069)
(14.8438 2 4.66114)
(14.0625 2 4.66895)
(7.8125 2 4.01319)
(8.59375 2 4.72364)
(7.8125 2 4.73145)
(33.5938 2 3.75537)
(34.375 2 4.46582)
(35.9375 2 3.73194)
(36.7188 2 4.44239)
(35.9375 2 4.4502)
(42.9688 2 3.66162)
(43.75 2 4.37207)
(25.7812 2 3.8335)
(26.5625 2 4.54395)
(14.8438 2 3.94287)
(15.625 2 4.65332)
(28.125 2 3.81006)
(28.9062 2 4.52051)
(28.125 2 4.52832)
(8.59375 2 4.00537)
(9.375 2 4.71582)
(17.1875 2 3.91944)
(17.9688 2 4.62989)
(10.9375 2 3.98194)
(11.7188 2 4.69239)
(36.7188 2 3.72412)
(37.5 2 4.43457)
(0 2 4.09131)
(0.78125 2 4.80176)
(0 2 4.80957)
(28.9062 2 3.80225)
(29.6875 2 4.5127)
(17.9688 2 3.91162)
(18.75 2 4.62207)
(11.7188 2 3.97412)
(12.5 2 4.68457)
(0.78125 2 4.0835)
(1.5625 2 4.79395)
(3.125 2 4.06006)
(3.90625 2 4.77051)
(3.125 2 4.77832)
(26.5625 2 3.82569)
(27.3438 2 4.53614)
(3.90625 2 4.05225)
(4.6875 2 4.7627)
(27.3438 2 3.81787)
(43.75 2 3.65381)
(44.5312 2 4.36426)
(29.6875 2 3.79444)
(30.4688 2 4.50489)
(1.5625 2 4.07569)
(2.34375 2 4.78614)
(18.75 2 3.90381)
(19.5312 2 4.61426)
(44.5312 2 3.646)
(45.3125 2 4.35645)
(46.875 2 3.62256)
(47.6562 2 4.33301)
(46.875 2 4.34082)
(30.4688 2 3.78662)
(31.25 2 4.49707)
(37.5 2 3.71631)
(38.2812 2 4.42676)
(2.34375 2 4.06787)
(19.5312 2 3.896)
(20.3125 2 4.60645)
(4.6875 2 4.04444)
(5.46875 2 4.75489)
(21.875 2 3.87256)
(22.6562 2 4.58301)
(47.6562 2 3.61475)
(48.4375 2 4.3252)
(38.2812 2 3.7085)
(31.25 2 3.77881)
(32.0312 2 4.48926)
(40.625 2 3.68506)
(41.4062 2 4.39551)
(5.46875 2 4.03662)
(6.25 2 4.74707)
(22.6562 2 3.86475)
(12.5 2 3.96631)
(13.2812 2 4.67676)
(6.25 2 4.02881)
(7.03125 2 4.73926)
(45.3125 2 3.63819)
(46.0938 2 4.34864)
(32.0312 2 3.771)
(34.375 2 3.74756)
(35.1562 2 4.45801)
(41.4062 2 3.67725)
(13.2812 2 3.9585)
(7.03125 2 4.021)
(20.3125 2 3.88819)
(15.625 2 3.93506)
(46.0938 2 3.63037)
(9.375 2 3.99756)
(35.1562 2 3.73975)
(48.4375 2 3.60694)
(49.2188 2 4.31739)
(49.2188 2 3.59912)
(39.0625 2 0.109375)
(21.0938 2 0.289062)
(16.4062 2 0.335937)
(10.1562 2 0.398437)
(23.4375 2 0.265625)
(32.8125 2 0.171875)
(39.8438 2 0.101562)
(42.1875 2 0.078125)
(24.2188 2 0.257812)
(25 2 0.25)
(14.0625 2 0.359375)
(7.8125 2 0.421875)
(33.5938 2 0.164062)
(35.9375 2 0.140625)
(42.9688 2 0.070312)
(25.7812 2 0.242187)
(14.8438 2 0.351562)
(28.125 2 0.21875)
(8.59375 2 0.414062)
(17.1875 2 0.328125)
(10.9375 2 0.390625)
(36.7188 2 0.132812)
(0 2 0.5)
(28.9062 2 0.210937)
(17.9688 2 0.320312)
(11.7188 2 0.382812)
(0.78125 2 0.492187)
(3.125 2 0.46875)
(26.5625 2 0.234375)
(3.90625 2 0.460937)
(27.3438 2 0.226562)
(43.75 2 0.0625)
(29.6875 2 0.203125)
(1.5625 2 0.484375)
(18.75 2 0.3125)
(44.5312 2 0.054687)
(46.875 2 0.03125)
(30.4688 2 0.195312)
(37.5 2 0.125)
(2.34375 2 0.476562)
(19.5312 2 0.304687)
(4.6875 2 0.453125)
(21.875 2 0.28125)
(47.6562 2 0.023437)
(38.2812 2 0.117187)
(31.25 2 0.1875)
(40.625 2 0.09375)
(5.46875 2 0.445312)
(22.6562 2 0.273437)
(12.5 2 0.375)
(6.25 2 0.4375)
(45.3125 2 0.046875)
(32.0312 2 0.179687)
(34.375 2 0.15625)
(41.4062 2 0.085937)
(13.2812 2 0.367187)
(7.03125 2 0.429687)
(20.3125 2 0.296875)
(15.625 2 0.34375)
(46.0938 2 0.039062)
(9.375 2 0.40625)
(35.1562 2 0.148437)
(48.4375 2 0.015625)
(49.2188 2 0.726074)
(49.2188 2 2.1626)
(49.2188 2 5.03565)
(49.2188 2 0.007812)
(-2.5 5 0.5)
(-2.5 4.8125 0.5)
(-2.5 4.8125 0.25)
(-2.5 4.4375 0.5)
(-2.5 4.25 0.5)
(-2.5 4.4375 0.25)
(-2.5 4.0625 0.25)
(-2.5 4.25 0.25)
(-2.5 4.625 0.25)
(-2.5 4.625 0.5)
(-2.5 3.875 0.25)
(-2.5 3.875 0.5)
(-2.5 3.6875 0.5)
(-2.5 3.5 0.5)
(-2.5 3.6875 0.25)
(-2.5 3.5 0.25)
(-2.5 3.3125 0.5)
(-2.5 3.3125 0.25)
(-2.5 2.9375 0.25)
(-2.5 3.125 0.25)
(-2.5 3.125 0.5)
(-2.5 2.9375 0.5)
(-2.5 2.375 0.5)
(-2.5 2.1875 0.5)
(-2.5 2.1875 0.25)
(-2.5 2.75 0.5)
(-2.5 2 0.25)
(-2.5 2.375 0.25)
(-2.5 2 0.5)
(-2.5 4.0625 0.5)
(-2.5 2.5625 0.25)
(-2.5 2.75 0.25)
(-2.5 2.5625 0.5)
(-2.5 7.8125 0.25)
(-2.5 8 0.25)
(-2.5 8 0.5)
(-2.5 5 0.25)
(-2.5 5.1875 0.25)
(-2.5 5.375 0.5)
(-2.5 5.1875 0.5)
(-2.5 5.375 0.25)
(-2.5 5.5625 0.25)
(-2.5 5.75 0.5)
(-2.5 5.5625 0.5)
(-2.5 5.75 0.25)
(-2.5 5.9375 0.25)
(-2.5 6.125 0.5)
(-2.5 5.9375 0.5)
(-2.5 6.125 0.25)
(-2.5 6.3125 0.25)
(-2.5 6.5 0.5)
(-2.5 6.3125 0.5)
(-2.5 6.5 0.25)
(-2.5 6.6875 0.25)
(-2.5 6.875 0.5)
(-2.5 6.6875 0.5)
(-2.5 6.875 0.25)
(-2.5 7.0625 0.25)
(-2.5 7.25 0.5)
(-2.5 7.0625 0.5)
(-2.5 7.25 0.25)
(-2.5 7.4375 0.25)
(-2.5 7.625 0.5)
(-2.5 7.4375 0.5)
(-2.5 7.625 0.25)
(-2.5 7.8125 0.5)
(-2.5 8 0)
(-2.5 2.1875 0)
(-2.5 2 0)
(-2.5 2.375 0)
(-2.5 2.75 0)
(-2.5 2.5625 0)
(-2.5 3.125 0)
(-2.5 2.9375 0)
(-2.5 3.5 0)
(-2.5 3.3125 0)
(-2.5 3.875 0)
(-2.5 3.6875 0)
(-2.5 4.25 0)
(-2.5 4.0625 0)
(-2.5 4.625 0)
(-2.5 4.4375 0)
(-2.5 5 0)
(-2.5 4.8125 0)
(-2.5 5.375 0)
(-2.5 5.1875 0)
(-2.5 5.75 0)
(-2.5 5.5625 0)
(-2.5 6.125 0)
(-2.5 5.9375 0)
(-2.5 6.5 0)
(-2.5 6.3125 0)
(-2.5 6.875 0)
(-2.5 6.6875 0)
(-2.5 7.25 0)
(-2.5 7.0625 0)
(-2.5 7.625 0)
(-2.5 7.4375 0)
(-2.5 7.8125 0)
(-0.625 8 0.25)
(-0.9375 8 0.25)
(-0.625 8 0)
(-2.1875 8 0)
(-1.875 8 0)
(-2.1875 8 0.25)
(-1.5625 8 0)
(-1.25 8 0)
(-1.5625 8 0.25)
(-0.9375 8 0)
(-1.25 8 0.25)
(-1.875 8 0.25)
(-0.3125 8 0)
(-0.3125 8 0.25)
(0 8 0)
(0 8 0.25)
(-0.3125 8 0.5)
(-0.625 8 0.5)
(-1.25 8 0.5)
(-0.9375 8 0.5)
(-1.875 8 0.5)
(-1.5625 8 0.5)
(-2.1875 8 0.5)
(-2.1875 8 1.21826)
(-0.3125 8 1.21826)
(-0.625 8 1.21826)
(-0.9375 8 1.21826)
(-1.25 8 1.21826)
(-1.5625 8 1.21826)
(-1.875 8 1.21826)
(-2.5 8 1.21826)
(-2.1875 8 1.93652)
(-0.3125 8 1.93652)
(-0.625 8 1.93652)
(-0.9375 8 1.93652)
(-1.25 8 1.93652)
(-1.5625 8 1.93652)
(-1.875 8 1.93652)
(-2.5 8 1.93652)
(-2.1875 8 2.65479)
(-0.3125 8 2.65479)
(-0.625 8 2.65479)
(-0.9375 8 2.65479)
(-1.25 8 2.65479)
(-1.5625 8 2.65479)
(-1.875 8 2.65479)
(-2.5 8 2.65479)
(-2.1875 8 3.37305)
(-0.3125 8 3.37305)
(-0.625 8 3.37305)
(-0.9375 8 3.37305)
(-1.25 8 3.37305)
(-1.5625 8 3.37305)
(-1.875 8 3.37305)
(-2.5 8 3.37305)
(-2.1875 8 4.09131)
(-0.3125 8 4.09131)
(-0.625 8 4.09131)
(-0.9375 8 4.09131)
(-1.25 8 4.09131)
(-1.5625 8 4.09131)
(-1.875 8 4.09131)
(-2.5 8 4.09131)
(-2.1875 8 4.80957)
(-0.3125 8 4.80957)
(-0.625 8 4.80957)
(-0.9375 8 4.80957)
(-1.25 8 4.80957)
(-1.5625 8 4.80957)
(-1.875 8 4.80957)
(-2.5 8 4.80957)
(-2.1875 8 5.52784)
(-0.3125 8 5.52784)
(-0.625 8 5.52784)
(-0.9375 8 5.52784)
(-1.25 8 5.52784)
(-1.5625 8 5.52784)
(-1.875 8 5.52784)
(-2.5 8 5.52784)
(-2.1875 8 6.2461)
(-0.3125 8 6.2461)
(-0.625 8 6.2461)
(-0.9375 8 6.2461)
(-1.25 8 6.2461)
(-1.5625 8 6.2461)
(-1.875 8 6.2461)
(-2.5 8 6.2461)
(-0.625 2 0.25)
(-0.9375 2 0.25)
(-0.625 2 0)
(-2.1875 2 0)
(-1.875 2 0)
(-2.1875 2 0.25)
(-1.5625 2 0)
(-1.25 2 0)
(-1.5625 2 0.25)
(-0.9375 2 0)
(-1.25 2 0.25)
(-1.875 2 0.25)
(-0.3125 2 0)
(-0.3125 2 0.25)
(0 2 0)
(0 2 0.25)
(-0.3125 2 0.5)
(-0.625 2 0.5)
(-1.25 2 0.5)
(-0.9375 2 0.5)
(-1.875 2 0.5)
(-1.5625 2 0.5)
(-2.1875 2 0.5)
(-2.1875 2 1.21826)
(-0.3125 2 1.21826)
(-0.625 2 1.21826)
(-0.9375 2 1.21826)
(-1.25 2 1.21826)
(-1.5625 2 1.21826)
(-1.875 2 1.21826)
(-2.5 2 1.21826)
(-2.1875 2 1.93652)
(-0.3125 2 1.93652)
(-0.625 2 1.93652)
(-0.9375 2 1.93652)
(-1.25 2 1.93652)
(-1.5625 2 1.93652)
(-1.875 2 1.93652)
(-2.5 2 1.93652)
(-2.1875 2 2.65479)
(-0.3125 2 2.65479)
(-0.625 2 2.65479)
(-0.9375 2 2.65479)
(-1.25 2 2.65479)
(-1.5625 2 2.65479)
(-1.875 2 2.65479)
(-2.5 2 2.65479)
(-2.1875 2 3.37305)
(-0.3125 2 3.37305)
(-0.625 2 3.37305)
(-0.9375 2 3.37305)
(-1.25 2 3.37305)
(-1.5625 2 3.37305)
(-1.875 2 3.37305)
(-2.5 2 3.37305)
(-2.1875 2 4.09131)
(-0.3125 2 4.09131)
(-0.625 2 4.09131)
(-0.9375 2 4.09131)
(-1.25 2 4.09131)
(-1.5625 2 4.09131)
(-1.875 2 4.09131)
(-2.5 2 4.09131)
(-2.1875 2 4.80957)
(-0.3125 2 4.80957)
(-0.625 2 4.80957)
(-0.9375 2 4.80957)
(-1.25 2 4.80957)
(-1.5625 2 4.80957)
(-1.875 2 4.80957)
(-2.5 2 4.80957)
(-2.1875 2 5.52784)
(-0.3125 2 5.52784)
(-0.625 2 5.52784)
(-0.9375 2 5.52784)
(-1.25 2 5.52784)
(-1.5625 2 5.52784)
(-1.875 2 5.52784)
(-2.5 2 5.52784)
(-2.1875 2 6.2461)
(-0.3125 2 6.2461)
(-0.625 2 6.2461)
(-0.9375 2 6.2461)
(-1.25 2 6.2461)
(-1.5625 2 6.2461)
(-1.875 2 6.2461)
(-2.5 2 6.2461)
(-2.5 2.1875 6.2461)
(-2.5 7.8125 5.52784)
(-2.5 7.8125 6.2461)
(-2.5 7.625 6.2461)
(-2.5 7.625 5.52784)
(-2.5 7.4375 6.2461)
(-2.5 7.25 5.52784)
(-2.5 7.4375 5.52784)
(-2.5 7.25 6.2461)
(-2.5 7.0625 6.2461)
(-2.5 6.875 5.52784)
(-2.5 7.0625 5.52784)
(-2.5 6.875 6.2461)
(-2.5 6.6875 6.2461)
(-2.5 6.5 5.52784)
(-2.5 6.6875 5.52784)
(-2.5 6.5 6.2461)
(-2.5 6.3125 6.2461)
(-2.5 6.125 5.52784)
(-2.5 6.3125 5.52784)
(-2.5 6.125 6.2461)
(-2.5 5.9375 6.2461)
(-2.5 5.75 5.52784)
(-2.5 5.9375 5.52784)
(-2.5 5.75 6.2461)
(-2.5 5.5625 6.2461)
(-2.5 5.375 5.52784)
(-2.5 5.5625 5.52784)
(-2.5 5.375 6.2461)
(-2.5 5.1875 6.2461)
(-2.5 5 5.52784)
(-2.5 5.1875 5.52784)
(-2.5 5 6.2461)
(-2.5 4.8125 6.2461)
(-2.5 4.625 5.52784)
(-2.5 4.8125 5.52784)
(-2.5 4.625 6.2461)
(-2.5 4.4375 6.2461)
(-2.5 4.25 5.52784)
(-2.5 4.4375 5.52784)
(-2.5 4.25 6.2461)
(-2.5 4.0625 6.2461)
(-2.5 3.875 5.52784)
(-2.5 4.0625 5.52784)
(-2.5 3.875 6.2461)
(-2.5 3.6875 6.2461)
(-2.5 3.5 5.52784)
(-2.5 3.6875 5.52784)
(-2.5 3.5 6.2461)
(-2.5 3.3125 6.2461)
(-2.5 3.125 5.52784)
(-2.5 3.3125 5.52784)
(-2.5 3.125 6.2461)
(-2.5 2.9375 6.2461)
(-2.5 2.75 5.52784)
(-2.5 2.9375 5.52784)
(-2.5 2.75 6.2461)
(-2.5 2.5625 6.2461)
(-2.5 2.375 5.52784)
(-2.5 2.5625 5.52784)
(-2.5 2.375 6.2461)
(-2.5 2.1875 5.52784)
(-2.5 7.625 1.21826)
(-2.5 7.4375 1.21826)
(-2.5 2.1875 1.21826)
(-2.5 2.5625 1.21826)
(-2.5 2.75 1.21826)
(-2.5 2.375 1.21826)
(-2.5 2.9375 1.21826)
(-2.5 3.125 1.21826)
(-2.5 3.3125 1.21826)
(-2.5 3.5 1.21826)
(-2.5 3.6875 1.21826)
(-2.5 3.875 1.21826)
(-2.5 4.0625 1.21826)
(-2.5 4.25 1.21826)
(-2.5 4.4375 1.21826)
(-2.5 4.625 1.21826)
(-2.5 4.8125 1.21826)
(-2.5 5 1.21826)
(-2.5 5.1875 1.21826)
(-2.5 5.375 1.21826)
(-2.5 5.5625 1.21826)
(-2.5 5.75 1.21826)
(-2.5 5.9375 1.21826)
(-2.5 6.125 1.21826)
(-2.5 6.3125 1.21826)
(-2.5 6.5 1.21826)
(-2.5 6.6875 1.21826)
(-2.5 6.875 1.21826)
(-2.5 7.0625 1.21826)
(-2.5 7.25 1.21826)
(-2.5 7.8125 1.21826)
(-2.5 7.8125 1.93652)
(-2.5 7.625 1.93652)
(-2.5 2.375 1.93652)
(-2.5 2.1875 1.93652)
(-2.5 2.5625 1.93652)
(-2.5 2.75 1.93652)
(-2.5 2.9375 1.93652)
(-2.5 3.125 1.93652)
(-2.5 3.3125 1.93652)
(-2.5 3.5 1.93652)
(-2.5 3.6875 1.93652)
(-2.5 3.875 1.93652)
(-2.5 4.0625 1.93652)
(-2.5 4.25 1.93652)
(-2.5 4.4375 1.93652)
(-2.5 4.625 1.93652)
(-2.5 4.8125 1.93652)