/*--------------------------------*- C++ -*----------------------------------*\
  =========                 |
  \\      /  F ield         | OpenFOAM: The Open Source CFD Toolbox
   \\    /   O peration     | Website:  https://openfoam.org
    \\  /    A nd           | Version:  9
     \\/     M anipulation  |
\*---------------------------------------------------------------------------*/
FoamFile
{
    format      ascii;
    class       extendedFeatureEdgeMesh;
    location    "constant/extendedFeatureEdgeMesh";
    object      Air.extendedFeatureEdgeMesh;
}
// * * * * * * * * * * * * * * * * * * * * * * * * * * * * * * * * * * * * * //

// points

254
(
(44.5312 2 5.80079)
(43.75 2 5.8086)
(44.5312 8 5.80079)
(24.2188 8 6.00391)
(25 8 5.9961)
(24.2188 2 6.00391)
(25.7812 8 5.98829)
(25 2 5.9961)
(19.5312 8 6.05079)
(18.75 2 6.0586)
(18.75 8 6.0586)
(26.5625 8 5.98047)
(27.3438 8 5.97266)
(26.5625 2 5.98047)
(28.125 8 5.96485)
(27.3438 2 5.97266)
(20.3125 8 6.04297)
(20.3125 2 6.04297)
(19.5312 2 6.05079)
(23.4375 8 6.01172)
(23.4375 2 6.01172)
(17.9688 2 6.06641)
(21.0938 8 6.03516)
(28.9062 8 5.95704)
(28.125 2 5.96485)
(22.6562 8 6.01954)
(22.6562 2 6.01954)
(21.0938 2 6.03516)
(29.6875 8 5.94922)
(28.9062 2 5.95704)
(21.875 8 6.02735)
(21.875 2 6.02735)
(17.9688 8 6.06641)
(30.4688 8 5.94141)
(29.6875 2 5.94922)
(17.1875 2 6.07422)
(17.1875 8 6.07422)
(31.25 8 5.9336)
(30.4688 2 5.94141)
(16.4062 2 6.08204)
(32.0312 8 5.92579)
(31.25 2 5.9336)
(32.8125 8 5.91797)
(32.0312 2 5.92579)
(16.4062 8 6.08204)
(33.5938 8 5.91016)
(32.8125 2 5.91797)
(15.625 2 6.08985)
(15.625 8 6.08985)
(34.375 8 5.90235)
(33.5938 2 5.91016)
(14.8438 2 6.09766)
(35.1562 8 5.89454)
(34.375 2 5.90235)
(35.9375 8 5.88672)
(35.1562 2 5.89454)
(14.8438 8 6.09766)
(36.7188 8 5.87891)
(35.9375 2 5.88672)
(14.0625 2 6.10547)
(14.0625 8 6.10547)
(37.5 8 5.8711)
(36.7188 2 5.87891)
(13.2812 8 6.11329)
(38.2812 8 5.86329)
(37.5 2 5.8711)
(13.2812 2 6.11329)
(25.7812 2 5.98829)
(39.0625 8 5.85547)
(38.2812 2 5.86329)
(12.5 8 6.1211)
(39.8438 8 5.84766)
(39.0625 2 5.85547)
(11.7188 8 6.12891)
(12.5 2 6.1211)
(40.625 8 5.83985)
(39.8438 2 5.84766)
(10.9375 8 6.13672)
(11.7188 2 6.12891)
(41.4062 8 5.83204)
(40.625 2 5.83985)
(10.1562 8 6.14454)
(10.9375 2 6.13672)
(42.1875 8 5.82422)
(41.4062 2 5.83204)
(9.375 8 6.15235)
(10.1562 2 6.14454)
(42.9688 8 5.81641)
(42.1875 2 5.82422)
(8.59375 8 6.16016)
(9.375 2 6.15235)
(43.75 8 5.8086)
(42.9688 2 5.81641)
(7.8125 8 6.16797)
(8.59375 2 6.16016)
(7.03125 8 6.17579)
(7.8125 2 6.16797)
(45.3125 8 5.79297)
(6.25 8 6.1836)
(7.03125 2 6.17579)
(46.0938 8 5.78516)
(45.3125 2 5.79297)
(5.46875 8 6.19141)
(6.25 2 6.1836)
(46.875 8 5.77735)
(46.0938 2 5.78516)
(4.6875 8 6.19922)
(5.46875 2 6.19141)
(47.6562 8 5.76954)
(46.875 2 5.77735)
(3.90625 8 6.20704)
(4.6875 2 6.19922)
(48.4375 8 5.76172)
(47.6562 2 5.76954)
(3.125 8 6.21485)
(3.125 2 6.21485)
(-0.625 8 6.2461)
(-2.5 6.3125 6.2461)
(-0.9375 8 6.2461)
(49.2188 8 5.75391)
(48.4375 2 5.76172)
(2.34375 8 6.22266)
(2.34375 2 6.22266)
(-2.5 6.125 6.2461)
(-2.5 6.5 6.2461)
(0.78125 8 6.23829)
(1.5625 8 6.23047)
(1.5625 2 6.23047)
(-1.25 8 6.2461)
(-2.5 6.6875 6.2461)
(-2.5 6.875 6.2461)
(-0.3125 8 6.2461)
(0 8 6.2461)
(-2.5 5.75 6.2461)
(-2.5 5.1875 6.2461)
(-2.5 5.9375 6.2461)
(-1.5625 8 6.2461)
(-2.5 7.25 6.2461)
(-2.5 7.0625 6.2461)
(49.4141 8.5 5.75391)
(51.6852 10 5.75391)
(49.6094 9 5.75391)
(51.1235 10 5.75391)
(-1.875 8 6.2461)
(-2.5 7.4375 6.2461)
(-2.5 7.625 6.2461)
(-2.5 7.8125 6.2461)
(-2.5 8 6.2461)
(-2.1875 8 6.2461)
(49.8047 9.5 5.75391)
(50.5617 10 5.75391)
(50 10 5.75391)
(52.247 10 5.75391)
(-2.5 5.5625 6.2461)
(-2.5 5.375 6.2461)
(52.8087 10 5.75391)
(53.3704 10 5.75391)
(56.7409 6.3125 5.75391)
(53.9322 10 5.75391)
(56.7409 6.875 5.75391)
(-2.5 5 6.2461)
(0.78125 2 6.23829)
(56.7409 5.9375 5.75391)
(56.7409 7.0625 5.75391)
(56.7409 7.625 5.75391)
(54.4939 10 5.75391)
(56.7409 7.8125 5.75391)
(55.0557 10 5.75391)
(56.7409 8 5.75391)
(55.6174 10 5.75391)
(56.7409 8.5 5.75391)
(56.7409 8.25 5.75391)
(56.7409 7.4375 5.75391)
(-2.5 4.8125 6.2461)
(56.7409 9 5.75391)
(56.7409 9.25 5.75391)
(56.1791 10 5.75391)
(56.7409 10 5.75391)
(56.7409 9.75 5.75391)
(56.7409 8.75 5.75391)
(56.7409 9.5 5.75391)
(-2.5 4.25 6.2461)
(-2.5 4.4375 6.2461)
(0 2 6.2461)
(-2.5 4.625 6.2461)
(-2.5 3.6875 6.2461)
(-2.5 3.875 6.2461)
(-0.625 2 6.2461)
(-2.5 4.0625 6.2461)
(-0.3125 2 6.2461)
(3.90625 2 6.20704)
(-2.5 3.125 6.2461)
(-2.5 3.3125 6.2461)
(-1.25 2 6.2461)
(-2.5 3.5 6.2461)
(-0.9375 2 6.2461)
(56.7409 7.25 5.75391)
(-2.5 2.5625 6.2461)
(-2.5 2.75 6.2461)
(-1.875 2 6.2461)
(-2.5 2.9375 6.2461)
(-1.5625 2 6.2461)
(56.7409 6.6875 5.75391)
(-2.5 2 6.2461)
(-2.5 2.1875 6.2461)
(-2.1875 2 6.2461)
(-2.5 2.375 6.2461)
(56.7409 6.5 5.75391)
(56.7409 6.125 5.75391)
(56.7409 5.75 5.75391)
(56.7409 5.5625 5.75391)
(56.7409 5.375 5.75391)
(56.7409 5.1875 5.75391)
(56.7409 5 5.75391)
(56.7409 4.8125 5.75391)
(49.2188 2 5.75391)
(56.7409 4.625 5.75391)
(56.7409 4.4375 5.75391)
(56.7409 4.25 5.75391)
(56.7409 4.0625 5.75391)
(56.7409 3.875 5.75391)
(52.8087 -1e-06 5.75391)
(56.7409 3.6875 5.75391)
(56.7409 3.5 5.75391)
(56.7409 3.3125 5.75391)
(53.3704 -1e-06 5.75391)
(56.7409 3.125 5.75391)
(56.7409 2.9375 5.75391)
(56.7409 2.75 5.75391)
(53.9322 -1e-06 5.75391)
(56.7409 2.5625 5.75391)
(56.7409 2.375 5.75391)
(56.7409 2.1875 5.75391)
(54.4939 -1e-06 5.75391)
(56.7409 2 5.75391)
(56.7409 1.75 5.75391)
(56.7409 1.5 5.75391)
(55.0557 -1e-06 5.75391)
(56.7409 1.25 5.75391)
(55.6174 -1e-06 5.75391)
(56.7409 1 5.75391)
(56.7409 0.75 5.75391)
(56.7409 0.5 5.75391)
(56.1791 -1e-06 5.75391)
(56.7409 0.25 5.75391)
(56.7409 -1e-06 5.75391)
(52.247 -1e-06 5.75391)
(51.6852 -1e-06 5.75391)
(51.1235 -1e-06 5.75391)
(49.4141 1.5 5.75391)
(50.5617 -1e-06 5.75391)
(50 -1e-06 5.75391)
(49.8047 0.499999 5.75391)
(49.6094 1 5.75391)
)

// edges

505
(
(125 134)
(161 173)
(215 119)
(134 132)
(125 161)
(173 183)
(2 0)
(5 3)
(4 5)
(6 7)
(8 9)
(12 13)
(15 12)
(14 15)
(3 20)
(8 18)
(22 17)
(23 24)
(26 25)
(19 26)
(22 27)
(29 23)
(28 29)
(30 27)
(25 31)
(21 32)
(33 34)
(38 33)
(37 38)
(40 41)
(43 40)
(39 44)
(45 46)
(50 45)
(51 48)
(52 53)
(55 52)
(51 56)
(57 58)
(62 57)
(59 63)
(64 65)
(66 63)
(6 67)
(69 64)
(11 67)
(71 72)
(74 73)
(76 71)
(73 78)
(79 80)
(82 81)
(84 79)
(81 86)
(87 88)
(90 89)
(92 87)
(89 94)
(95 99)
(100 101)
(105 100)
(102 107)
(108 109)
(113 108)
(110 115)
(119 120)
(122 121)
(140 119)
(141 142)
(150 141)
(156 157)
(158 159)
(155 119)
(125 160)
(155 162)
(167 168)
(169 170)
(172 165)
(176 175)
(190 110)
(213 119)
(215 213)
(221 219)
(221 215)
(222 225)
(226 229)
(230 233)
(239 236)
(237 234)
(243 241)
(247 215)
(253 248)
(250 253)
(1 2)
(7 4)
(9 10)
(13 11)
(16 17)
(18 16)
(20 19)
(21 10)
(24 14)
(31 30)
(34 28)
(35 32)
(35 36)
(39 36)
(41 37)
(42 43)
(46 42)
(47 44)
(47 48)
(49 50)
(53 49)
(54 55)
(58 54)
(59 56)
(59 60)
(61 62)
(65 61)
(68 69)
(66 70)
(72 68)
(70 74)
(75 76)
(78 77)
(80 75)
(77 82)
(83 84)
(86 85)
(88 83)
(85 90)
(91 92)
(94 93)
(1 91)
(96 95)
(93 96)
(97 0)
(99 98)
(101 97)
(98 103)
(103 102)
(104 105)
(107 106)
(109 104)
(111 110)
(106 111)
(112 113)
(115 114)
(116 117)
(117 118)
(120 112)
(114 122)
(116 123)
(124 118)
(126 127)
(127 125)
(122 126)
(128 129)
(130 128)
(133 131)
(132 133)
(129 118)
(131 135)
(135 116)
(130 136)
(137 136)
(136 138)
(139 140)
(142 139)
(137 143)
(144 143)
(145 143)
(148 146)
(145 148)
(149 150)
(152 119)
(132 153)
(154 132)
(157 155)
(159 156)
(161 160)
(162 119)
(158 163)
(164 165)
(165 166)
(168 165)
(170 167)
(171 167)
(172 158)
(174 169)
(169 175)
(178 176)
(179 169)
(176 180)
(182 183)
(183 181)
(184 183)
(186 187)
(187 185)
(188 187)
(181 189)
(189 188)
(193 191)
(192 193)
(194 195)
(195 192)
(185 195)
(196 158)
(199 197)
(198 199)
(200 201)
(201 198)
(201 191)
(202 156)
(204 205)
(206 205)
(206 199)
(207 156)
(208 155)
(210 119)
(119 209)
(211 119)
(119 212)
(214 215)
(217 215)
(215 216)
(218 215)
(220 221)
(222 221)
(219 215)
(224 225)
(225 223)
(226 225)
(228 229)
(229 227)
(230 229)
(232 233)
(233 231)
(234 233)
(237 235)
(236 237)
(238 239)
(239 240)
(241 239)
(242 243)
(243 244)
(215 246)
(249 247)
(248 249)
(252 250)
(0 1)
(3 4)
(4 6)
(10 8)
(11 12)
(12 14)
(17 18)
(19 3)
(18 9)
(9 21)
(16 22)
(14 23)
(25 19)
(27 17)
(23 28)
(22 30)
(30 25)
(32 10)
(28 33)
(31 27)
(21 35)
(36 32)
(33 37)
(35 39)
(37 40)
(8 16)
(26 31)
(40 42)
(44 36)
(42 45)
(20 26)
(39 47)
(48 44)
(45 49)
(47 51)
(49 52)
(5 20)
(52 54)
(56 48)
(54 57)
(7 5)
(51 59)
(60 56)
(57 61)
(63 60)
(61 64)
(59 66)
(67 7)
(64 68)
(6 11)
(70 63)
(68 71)
(13 67)
(73 70)
(66 74)
(71 75)
(77 73)
(75 79)
(81 77)
(74 78)
(15 13)
(79 83)
(85 81)
(83 87)
(24 15)
(89 85)
(78 82)
(87 91)
(93 89)
(91 2)
(95 93)
(82 86)
(29 24)
(2 97)
(98 95)
(97 100)
(34 29)
(102 98)
(86 90)
(100 104)
(106 102)
(104 108)
(110 106)
(90 94)
(38 34)
(108 112)
(114 110)
(118 116)
(112 119)
(41 38)
(121 114)
(123 117)
(117 124)
(125 126)
(126 121)
(129 130)
(131 132)
(132 125)
(124 129)
(128 118)
(116 131)
(136 128)
(138 137)
(119 139)
(139 141)
(143 136)
(130 138)
(137 144)
(144 145)
(146 147)
(147 148)
(148 143)
(145 146)
(133 135)
(135 123)
(141 149)
(149 151)
(151 150)
(142 140)
(150 142)
(140 152)
(153 133)
(134 154)
(154 153)
(155 156)
(156 158)
(152 155)
(160 134)
(122 127)
(163 159)
(166 164)
(165 167)
(167 169)
(170 171)
(164 172)
(158 165)
(171 168)
(173 160)
(175 174)
(176 177)
(177 178)
(174 179)
(169 176)
(180 175)
(127 161)
(115 122)
(181 182)
(182 184)
(184 173)
(178 180)
(179 170)
(185 186)
(186 188)
(188 181)
(111 190)
(168 166)
(190 115)
(161 183)
(191 192)
(192 194)
(194 185)
(172 196)
(187 195)
(197 198)
(198 200)
(193 201)
(200 191)
(195 193)
(196 163)
(159 202)
(203 204)
(205 203)
(204 206)
(199 205)
(206 197)
(201 199)
(202 207)
(207 157)
(157 208)
(208 162)
(209 210)
(210 211)
(162 209)
(183 189)
(189 187)
(212 213)
(213 214)
(211 212)
(216 217)
(217 218)
(214 216)
(107 111)
(219 220)
(220 222)
(218 219)
(96 99)
(99 103)
(103 107)
(223 224)
(224 226)
(225 221)
(222 223)
(94 96)
(227 228)
(228 230)
(229 225)
(226 227)
(231 232)
(232 234)
(233 229)
(230 231)
(235 236)
(236 238)
(234 235)
(43 41)
(46 43)
(237 233)
(240 241)
(241 242)
(238 240)
(239 237)
(53 50)
(50 46)
(243 239)
(244 245)
(245 243)
(242 244)
(55 53)
(58 55)
(62 58)
(65 62)
(246 247)
(247 248)
(221 246)
(72 69)
(69 65)
(249 215)
(250 251)
(251 252)
(248 250)
(76 72)
(253 249)
(252 253)
(80 76)
(120 113)
(113 109)
(215 120)
(84 80)
(88 84)
(105 101)
(101 0)
(109 105)
(1 92)
(92 88)
)

// concaveStart mixedStart nonFeatureStart
0 0 254
// internalStart flatStart openStart multipleStart
3 6 251 505
// normals

252
(
(-0.0100001 0 -0.99995)
(-0.00999889 -0 -0.99995)
(-0.0100001 -0 -0.99995)
(-0.0100001 0 -0.99995)
(-0.0100001 -0 -0.99995)
(-0.00999889 -0 -0.99995)
(-0.00999889 -0 -0.99995)
(-0.0100001 -0 -0.99995)
(-0.0100001 0 -0.99995)
(-0.00999889 -0 -0.99995)
(-0.0100001 0 -0.99995)
(-0.0100001 -0 -0.99995)
(-0.00999889 -0 -0.99995)
(-0.0100001 0 -0.99995)
(-0.00999889 -0 -0.99995)
(-0.00999889 0 -0.99995)
(-0.0100001 -0 -0.99995)
(-0.00999889 0 -0.99995)
(-0.0100001 -0 -0.99995)
(-0.00999889 0 -0.99995)
(-0.0100001 -0 -0.99995)
(-0.0100001 0 -0.99995)
(-0.00999889 -0 -0.99995)
(-0.00999889 -0 -0.99995)
(-0.0100001 -0 -0.99995)
(-0.00999889 -0 -0.99995)
(-0.0100001 0 -0.99995)
(-0.00999889 -0 -0.99995)
(-0.00999889 0 -0.99995)
(-0.0100001 -0 -0.99995)
(-0.00999889 0 -0.99995)
(-0.0100001 -0 -0.99995)
(-0.0100001 0 -0.99995)
(-0.00999889 -0 -0.99995)
(-0.00999889 -0 -0.99995)
(-0.0100001 -0 -0.99995)
(-0.0100001 0 -0.99995)
(-0.00999889 -0 -0.99995)
(-0.00999889 0 -0.99995)
(-0.0100001 -0 -0.99995)
(-0.00999889 0 -0.99995)
(-0.0100001 -0 -0.99995)
(-0.0100001 0 -0.99995)
(-0.00999889 -0 -0.99995)
(-0.00999889 -0 -0.99995)
(-0.0100001 -0 -0.99995)
(-0.00999889 -0 -0.99995)
(-0.0100001 0 -0.99995)
(-0.00999889 -0 -0.99995)
(-0.00999889 0 -0.99995)
(-0.0100001 0 -0.99995)
(-0.0100001 -0 -0.99995)
(-0.00999889 0 -0.99995)
(-0.00999889 0 -0.99995)
(-0.0100001 -0 -0.99995)
(-0.00999889 -0 -0.99995)
(-0.0100001 0 -0.99995)
(-0.0100001 -0 -0.99995)
(-0.00999889 0 -0.99995)
(-0.00999889 -0 -0.99995)
(-0.0100001 0 -0.99995)
(-0.00999889 -0 -0.99995)
(-0.0100001 0 -0.99995)
(-0.0100001 -0 -0.99995)
(-0.00999889 0 -0.99995)
(-0.00999889 0 -0.99995)
(-0.0100001 -0 -0.99995)
(-0.00999889 -0 -0.99995)
(-0.0100001 0 -0.99995)
(-0.0100001 -0 -0.99995)
(-0.00999889 0 -0.99995)
(-0.00999889 -0 -0.99995)
(-0.0100001 0 -0.99995)
(-0.00999889 -0 -0.99995)
(-0.0100001 0 -0.99995)
(-0.0100001 -0 -0.99995)
(-0.00999889 0 -0.99995)
(-0.00999889 0 -0.99995)
(-0.0100001 -0 -0.99995)
(-0.00999889 -0 -0.99995)
(-0.0100001 0 -0.99995)
(-0.0100001 -0 -0.99995)
(-0.00999889 0 -0.99995)
(-0.00999889 -0 -0.99995)
(-0.0100001 0 -0.99995)
(-0.00999889 -0 -0.99995)
(-0.0100001 -0 -0.99995)
(-0 0 -1)
(-0.0100001 -0 -0.99995)
(-0.00999889 0 -0.99995)
(-0.00999889 -0 -0.99995)
(0 0 -1)
(0 0 -1)
(-0.00999889 0 -0.99995)
(-0.0100001 0 -0.99995)
(0 0 -1)
(0 -0 -1)
(-0.00999969 0.00888861 -0.99991)
(0 0 -1)
(0 0 -1)
(0 -0 -1)
(-0 0 -1)
(0 0 -1)
(-1.13181e-06 4.42114e-07 -1)
(8.48856e-07 -2.23893e-06 -1)
(-0 0 -1)
(0 0 -1)
(0 0 -1)
(0 0 -1)
(0 0 -1)
(0 -0 -1)
(0 0 -1)
(0 0 -1)
(0 0 -1)
(-1.69771e-06 6.63169e-07 -1)
(0 -1.90735e-06 -1)
(0 -1.27157e-06 -1)
(0 -9.53674e-07 -1)
(0 -9.53674e-07 -1)
(0 0 -1)
(0 0 -1)
(0 0 -1)
(0 -1.29312e-06 -1)
(0 -1.52588e-06 -1)
(0 -9.53674e-07 -1)
(-0.00238109 -0 -0.999997)
(-0.0100001 -0 -0.99995)
(1.69772e-06 0 -1)
(2.12215e-06 0 -1)
(0 -2.38419e-06 -1)
(0 -3.17891e-06 -1)
(2.82953e-06 0 -1)
(2.12215e-06 0 -1)
(0 -1.86083e-06 -1)
(2.82953e-06 0 -1)
(-0.00238109 0 -0.999997)
(4.24429e-06 0 -1)
(0 -1.90735e-05 -1)
(4.24429e-06 0 -1)
(0 -6.35783e-06 -1)
(8.48862e-06 0 -1)
(-0.00999889 -0 -0.99995)
(-0.00999889 0 -0.99995)
(0 0 -1)
(0 0 -1)
(0 0 -1)
(8.48862e-06 0 -1)
(4.24429e-06 0 -1)
(0 0 -1)
(0 0 -1)
(0 0 -1)
(-0.00999889 -0 -0.99995)
(2.12215e-06 0 -1)
(-0.0100001 -0 -0.99995)
(-0.00999972 -0.00888863 -0.99991)
(0 0 -1)
(0 0 -1)
(0 0 -1)
(1.69772e-06 0 -1)
(0 0 -1)
(0 0 -1)
(0 0 -1)
(0 0 -1)
(0 0 -1)
(0 0 -1)
(1.69772e-06 0 -1)
(1.41476e-06 0 -1)
(0 0 -1)
(0 0 -1)
(0 0 -1)
(0 0 -1)
(0 0 -1)
(1.41476e-06 0 -1)
(1.41476e-06 0 -1)
(1.21266e-06 0 -1)
(1.21266e-06 0 -1)
(3.80348e-07 0 -1)
(3.80348e-07 0 -1)
(3.80348e-07 0 -1)
(0 0 -1)
(0 0 -1)
(3.80348e-07 0 -1)
(3.80348e-07 0 -1)
(3.80348e-07 0 -1)
(3.80348e-07 0 -1)
(3.80348e-07 0 -1)
(3.80348e-07 0 -1)
(-0.0100001 0 -0.99995)
(1.21266e-06 0 -1)
(1.21266e-06 0 -1)
(3.80348e-07 0 -1)
(-0.00999889 0 -0.99995)
(-0.0100001 0 -0.99995)
(-0.00999889 0 -0.99995)
(1.41476e-06 0 -1)
(1.41476e-06 0 -1)
(0 1.29312e-06 -1)
(1.41476e-06 0 -1)
(-0.0100001 0 -0.99995)
(1.69772e-06 0 -1)
(1.69772e-06 0 -1)
(0 1.52588e-06 -1)
(1.69772e-06 0 -1)
(2.12215e-06 0 -1)
(2.12215e-06 0 -1)
(0 1.86083e-06 -1)
(2.12215e-06 0 -1)
(2.82953e-06 0 -1)
(4.24429e-06 0 -1)
(2.82953e-06 0 -1)
(-0.0100001 0 -0.99995)
(-0.00999889 0 -0.99995)
(0 2.38418e-06 -1)
(4.24429e-06 0 -1)
(8.48862e-06 0 -1)
(4.24429e-06 0 -1)
(0 3.17891e-06 -1)
(-0.00999889 0 -0.99995)
(-0.0100001 0 -0.99995)
(0 6.35782e-06 -1)
(0 1.90734e-05 -1)
(8.48862e-06 0 -1)
(-0.0100001 -0 -0.99995)
(-0.00999889 0 -0.99995)
(-0.0100001 0 -0.99995)
(-0.00999889 0 -0.99995)
(0 9.53674e-07 -1)
(0 1.27156e-06 -1)
(0 9.53674e-07 -1)
(-0.00999889 0 -0.99995)
(-0.0100001 0 -0.99995)
(-1.13181e-06 -4.42114e-07 -1)
(0 1.90735e-06 -1)
(0 9.53673e-07 -1)
(-0.0100001 -0 -0.99995)
(8.48858e-07 2.23893e-06 -1)
(-1.69771e-06 -6.63167e-07 -1)
(-0.00999889 0 -0.99995)
(-0.00999889 0 -0.99995)
(-0.0100001 0 -0.99995)
(-0.0100001 -0 -0.99995)
(-0.0100001 0 -0.99995)
(-0.00999889 0 -0.99995)
(-0.0100001 0 -0.99995)
(-0.00999889 0 -0.99995)
(-0.00999889 0 -0.99995)
(-0.00999889 0 -0.99995)
(-0.0100001 0 -0.99995)
(7.96551e-08 -1.09665e-06 -1)
(-0.00238109 0 -0.999997)
(3.80348e-07 0 -1)
(7.96552e-08 1.09665e-06 -1)
)

// normal volume types

252
(
0
0
0
0
0
0
0
0
0
0
0
0
0
0
0
0
0
0
0
0
0
0
0
0
0
0
0
0
0
0
0
0
0
0
0
0
0
0
0
0
0
0
0
0
0
0
0
0
0
0
0
0
0
0
0
0
0
0
0
0
0
0
0
0
0
0
0
0
0
0
0
0
0
0
0
0
0
0
0
0
0
0
0
0
0
0
0
0
0
0
0
0
0
0
0
0
0
0
0
0
0
0
0
0
0
0
0
0
0
0
0
0
0
0
0
0
0
0
0
0
0
0
0
0
0
0
0
0
0
0
0
0
0
0
0
0
0
0
0
0
0
0
0
0
0
0
0
0
0
0
0
0
0
0
0
0
0
0
0
0
0
0
0
0
0
0
0
0
0
0
0
0
0
0
0
0
0
0
0
0
0
0
0
0
0
0
0
0
0
0
0
0
0
0
0
0
0
0
0
0
0
0
0
0
0
0
0
0
0
0
0
0
0
0
0
0
0
0
0
0
0
0
0
0
0
0
0
0
0
0
0
0
0
0
0
0
0
0
0
0
0
0
0
0
0
0
0
0
0
0
0
0
)

// normalDirections

505
(
2(1 -1)
2(1 -1)
2(1 -1)
2(1 -1)
2(1 -1)
2(1 -1)
2(1 -1)
2(1 -1)
2(1 -1)
2(1 -1)
2(1 -1)
2(1 -1)
2(1 -1)
2(1 -1)
2(1 -1)
2(1 -1)
2(1 -1)
2(1 -1)
2(1 -1)
2(1 -1)
2(1 -1)
2(1 -1)
2(1 -1)
2(1 -1)
2(1 -1)
2(1 -1)
2(1 -1)
2(1 -1)
2(1 -1)
2(1 -1)
2(1 -1)
2(1 -1)
2(1 -1)
2(1 -1)
2(1 -1)
2(1 -1)
2(1 -1)
2(1 -1)
2(1 -1)
2(1 -1)
2(1 -1)
2(1 -1)
2(1 -1)
2(1 -1)
2(1 -1)
2(1 -1)
2(1 -1)
2(1 -1)
2(1 -1)
2(1 -1)
2(1 -1)
2(1 -1)
2(1 -1)
2(1 -1)
2(1 -1)
2(1 -1)
2(1 -1)
2(1 -1)
2(1 -1)
2(1 -1)
2(1 -1)
2(1 -1)
2(1 -1)
2(1 -1)
2(1 -1)
2(1 -1)
2(1 -1)
2(1 -1)
2(1 -1)
2(1 -1)
2(1 -1)
2(1 -1)
2(1 -1)
2(1 -1)
2(1 -1)
2(1 -1)
2(1 -1)
2(1 -1)
2(1 -1)
2(1 -1)
2(1 -1)
2(1 -1)
2(1 -1)
2(1 -1)
2(1 -1)
2(1 -1)
2(1 -1)
2(1 -1)
2(1 -1)
2(1 -1)
2(1 -1)
2(1 -1)
2(1 -1)
2(1 -1)
2(1 -1)
2(1 -1)
2(1 -1)
2(1 -1)
2(1 -1)
2(1 -1)
2(1 -1)
2(1 -1)
2(1 -1)
2(1 -1)
2(1 -1)
2(1 -1)
2(1 -1)
2(1 -1)
2(1 -1)
2(1 -1)
2(1 -1)
2(1 -1)
2(1 -1)
2(1 -1)
2(1 -1)
2(1 -1)
2(1 -1)
2(1 -1)
2(1 -1)
2(1 -1)
2(1 -1)
2(1 -1)
2(1 -1)
2(1 -1)
2(1 -1)
2(1 -1)
2(1 -1)
2(1 -1)
2(1 -1)
2(1 -1)
2(1 -1)
2(1 -1)
2(1 -1)
2(1 -1)
2(1 -1)
2(1 -1)
2(1 -1)
2(1 -1)
2(1 -1)
2(1 -1)
2(1 -1)
2(1 -1)
2(1 -1)
2(1 -1)
2(1 -1)
2(1 -1)
2(1 -1)
2(1 -1)
2(1 -1)
2(1 -1)
2(1 -1)
2(1 -1)
2(1 -1)
2(1 -1)
2(1 -1)
2(1 -1)
2(1 -1)
2(1 -1)
2(1 -1)
2(1 -1)
2(1 -1)
2(1 -1)
2(1 -1)
2(1 -1)
2(1 -1)
2(1 -1)
2(1 -1)
2(1 -1)
2(1 -1)
2(1 -1)
2(1 -1)
2(1 -1)
2(1 -1)
2(1 -1)
2(1 -1)
2(1 -1)
2(1 -1)
2(1 -1)
2(1 -1)
2(1 -1)
2(1 -1)
2(1 -1)
2(1 -1)
2(1 -1)
2(1 -1)
2(1 -1)
2(1 -1)
2(1 -1)
2(1 -1)
2(1 -1)
2(1 -1)
2(1 -1)
2(1 -1)
2(1 -1)
2(1 -1)
2(1 -1)
2(1 -1)
2(1 -1)
2(1 -1)
2(1 -1)
2(1 -1)
2(1 -1)
2(1 -1)
2(1 -1)
2(1 -1)
2(1 -1)
2(1 -1)
2(1 -1)
2(1 -1)
2(1 -1)
2(1 -1)
2(1 -1)
2(1 -1)
2(1 -1)
2(1 -1)
2(1 -1)
2(1 -1)
2(1 -1)
2(1 -1)
2(1 -1)
2(1 -1)
2(1 -1)
2(1 -1)
2(1 -1)
2(1 -1)
2(1 -1)
2(1 -1)
2(1 -1)
2(1 -1)
2(1 -1)
2(1 -1)
2(1 -1)
2(1 -1)
2(1 -1)
2(1 -1)
2(1 -1)
2(1 -1)
2(1 -1)
2(1 -1)
2(1 -1)
2(1 -1)
2(1 -1)
2(1 -1)
2(1 -1)
2(1 -1)
2(1 -1)
2(1 -1)
2(1 -1)
2(1 -1)
2(1 -1)
2(1 -1)
1(1)
1(1)
1(1)
1(1)
1(1)
1(1)
1(1)
1(1)
1(1)
1(1)
1(1)
1(1)
1(1)
1(1)
1(1)
1(1)
1(1)
1(1)
1(1)
1(1)
1(1)
1(1)
1(1)
1(1)
1(1)
1(1)
1(1)
1(1)
1(1)
1(1)
1(1)
1(1)
1(1)
1(1)
1(1)
1(1)
1(1)
1(1)
1(1)
1(1)
1(1)
1(1)
1(1)
1(1)
1(1)
1(1)
1(1)
1(1)
1(1)
1(1)
1(1)
1(1)
1(1)
1(1)
1(1)
1(1)
1(1)
1(1)
1(1)
1(1)
1(1)
1(1)
1(1)
1(1)
1(1)
1(1)
1(1)
1(1)
1(1)
1(1)
1(1)
1(1)
1(1)
1(1)
1(1)
1(1)
1(1)
1(1)
1(1)
1(1)
1(1)
1(1)
1(1)
1(1)
1(1)
1(1)
1(1)
1(1)
1(1)
1(1)
1(1)
1(1)
1(1)
1(1)
1(1)
1(1)
1(1)
1(1)
1(1)
1(1)
1(1)
1(1)
1(1)
1(1)
1(1)
1(1)
1(1)
1(1)
1(1)
1(1)
1(1)
1(1)
1(1)
1(1)
1(1)
1(1)
1(1)
1(1)
1(1)
1(1)
1(1)
1(1)
1(1)
1(1)
1(1)
1(1)
1(1)
1(1)
1(1)
1(1)
1(1)
1(1)
1(1)
1(1)
1(1)
1(1)
1(1)
1(1)
1(1)
1(1)
1(1)
1(1)
1(1)
1(1)
1(1)
1(1)
1(1)
1(1)
1(1)
1(1)
1(1)
1(1)
1(1)
1(1)
1(1)
1(1)
1(1)
1(1)
1(1)
1(1)
1(1)
1(1)
1(1)
1(1)
1(1)
1(1)
1(1)
1(1)
1(1)
1(1)
1(1)
1(1)
1(1)
1(1)
1(1)
1(1)
1(1)
1(1)
1(1)
1(1)
1(1)
1(1)
1(1)
1(1)
1(1)
1(1)
1(1)
1(1)
1(1)
1(1)
1(1)
1(1)
1(1)
1(1)
1(1)
1(1)
1(1)
1(1)
1(1)
1(1)
1(1)
1(1)
1(1)
1(1)
1(1)
1(1)
1(1)
1(1)
1(1)
1(1)
1(1)
1(1)
1(1)
1(1)
1(1)
1(1)
1(1)
1(1)
1(1)
1(1)
1(1)
1(1)
1(1)
1(1)
1(1)
1(1)
1(1)
1(1)
1(1)
1(1)
1(1)
1(1)
1(1)
1(1)
1(1)
1(1)
1(1)
1(1)
1(1)
1(1)
1(1)
1(1)
1(1)
1(1)
1(1)
1(1)
1(1)
1(1)
1(1)
1(1)
1(1)
1(1)
1(1)
1(1)
)

// edgeNormals

505
(
2(97 125)
2(135 154)
2(250 240)
2(97 120)
2(249 141)
2(145 154)
2(0 73)
2(1 36)
2(1 40)
2(2 47)
2(3 8)
2(4 60)
2(5 60)
2(5 64)
2(7 36)
2(8 25)
2(10 13)
2(11 72)
2(12 26)
2(12 30)
2(13 15)
2(14 72)
2(14 76)
2(15 19)
2(16 26)
2(17 20)
2(18 84)
2(22 84)
2(22 89)
2(24 210)
2(27 210)
2(28 31)
2(29 218)
2(33 218)
2(34 38)
2(35 222)
2(37 222)
2(38 41)
2(39 224)
2(43 224)
2(44 46)
2(45 230)
2(46 50)
2(47 49)
2(48 230)
2(49 52)
2(51 234)
2(53 59)
2(55 234)
2(56 59)
2(57 241)
2(58 71)
2(61 241)
2(62 71)
2(63 247)
2(65 83)
2(67 247)
2(68 83)
2(74 191)
2(75 243)
2(79 243)
2(80 193)
2(81 239)
2(85 239)
2(86 153)
2(88 240)
2(90 94)
2(103 118)
2(104 117)
2(114 117)
2(122 173)
2(123 127)
2(124 248)
2(125 249)
2(248 175)
2(129 134)
2(130 147)
2(132 133)
2(139 140)
2(151 153)
2(181 250)
2(182 250)
2(188 251)
2(251 228)
2(196 197)
2(201 202)
2(205 206)
2(208 216)
2(209 212)
2(214 219)
2(226 231)
2(233 235)
2(233 236)
2(0 69)
2(2 40)
2(3 9)
2(4 52)
2(6 10)
2(6 25)
2(7 30)
2(9 17)
2(11 64)
2(16 19)
2(18 76)
2(20 21)
2(21 23)
2(23 28)
2(24 89)
2(27 211)
2(29 211)
2(31 32)
2(32 34)
2(33 217)
2(35 217)
2(37 223)
2(39 223)
2(41 42)
2(42 44)
2(43 225)
2(45 225)
2(48 229)
2(50 54)
2(51 229)
2(53 54)
2(55 237)
2(56 66)
2(57 237)
2(58 66)
2(61 242)
2(62 78)
2(63 242)
2(65 78)
2(67 246)
2(68 198)
2(69 246)
2(70 191)
2(70 198)
2(73 244)
2(74 192)
2(75 244)
2(77 192)
2(77 193)
2(79 245)
2(80 187)
2(81 245)
2(82 151)
2(82 187)
2(85 238)
2(86 142)
2(87 91)
2(87 92)
2(88 238)
2(90 142)
2(91 113)
2(92 98)
2(93 126)
2(93 141)
2(94 126)
2(95 99)
2(95 101)
2(96 112)
2(96 119)
2(98 99)
2(100 112)
2(100 113)
2(101 106)
2(102 105)
2(102 106)
2(103 116)
2(104 116)
2(105 107)
2(107 108)
2(108 110)
2(109 111)
2(110 111)
2(114 115)
2(118 124)
2(119 121)
2(120 121)
2(122 174)
2(123 166)
2(249 135)
2(248 178)
2(127 165)
2(128 132)
2(128 152)
2(129 152)
2(130 131)
2(131 134)
2(133 158)
2(136 138)
2(136 139)
2(137 146)
2(138 147)
2(140 146)
2(143 144)
2(143 179)
2(144 145)
2(148 149)
2(148 159)
2(149 180)
2(150 179)
2(150 180)
2(155 162)
2(155 164)
2(156 157)
2(156 164)
2(157 159)
2(158 165)
2(160 170)
2(160 171)
2(161 163)
2(161 171)
2(162 163)
2(166 172)
2(167 168)
2(168 169)
2(169 170)
2(172 173)
2(174 175)
2(176 177)
2(176 178)
2(177 183)
2(181 183)
2(182 186)
2(184 185)
2(184 186)
2(185 190)
2(188 189)
2(189 196)
2(190 251)
2(194 195)
2(194 197)
2(195 201)
2(199 200)
2(199 202)
2(200 205)
2(203 204)
2(203 206)
2(204 212)
2(207 209)
2(207 216)
2(208 215)
2(213 215)
2(213 219)
2(214 221)
2(220 221)
2(226 228)
2(227 231)
2(227 235)
2(232 236)
1(0)
1(1)
1(2)
1(3)
1(4)
1(5)
1(6)
1(7)
1(8)
1(9)
1(10)
1(11)
1(12)
1(13)
1(14)
1(15)
1(16)
1(17)
1(18)
1(19)
1(20)
1(21)
1(22)
1(23)
1(24)
1(25)
1(26)
1(27)
1(28)
1(29)
1(30)
1(31)
1(32)
1(33)
1(34)
1(35)
1(36)
1(37)
1(38)
1(39)
1(40)
1(41)
1(42)
1(43)
1(44)
1(45)
1(46)
1(47)
1(48)
1(49)
1(50)
1(51)
1(52)
1(53)
1(54)
1(55)
1(56)
1(57)
1(58)
1(59)
1(60)
1(61)
1(62)
1(63)
1(64)
1(65)
1(66)
1(67)
1(68)
1(69)
1(70)
1(71)
1(72)
1(73)
1(74)
1(75)
1(76)
1(77)
1(78)
1(79)
1(80)
1(81)
1(82)
1(83)
1(84)
1(85)
1(86)
1(87)
1(88)
1(89)
1(90)
1(91)
1(92)
1(93)
1(94)
1(95)
1(96)
1(97)
1(98)
1(99)
1(100)
1(101)
1(102)
1(103)
1(104)
1(105)
1(106)
1(107)
1(108)
1(109)
1(109)
1(110)
1(111)
1(112)
1(113)
1(114)
1(115)
1(115)
1(116)
1(117)
1(118)
1(119)
1(120)
1(121)
1(122)
1(123)
1(124)
1(125)
1(126)
1(127)
1(128)
1(129)
1(130)
1(131)
1(132)
1(133)
1(134)
1(135)
1(136)
1(137)
1(137)
1(138)
1(139)
1(140)
1(141)
1(142)
1(143)
1(144)
1(145)
1(146)
1(147)
1(148)
1(149)
1(150)
1(151)
1(152)
1(153)
1(154)
1(155)
1(156)
1(157)
1(158)
1(159)
1(160)
1(161)
1(162)
1(163)
1(164)
1(165)
1(166)
1(167)
1(167)
1(168)
1(169)
1(170)
1(171)
1(172)
1(173)
1(174)
1(175)
1(176)
1(177)
1(178)
1(179)
1(180)
1(181)
1(182)
1(183)
1(184)
1(185)
1(186)
1(187)
1(188)
1(189)
1(190)
1(191)
1(192)
1(193)
1(194)
1(195)
1(196)
1(197)
1(198)
1(199)
1(200)
1(201)
1(202)
1(203)
1(204)
1(205)
1(206)
1(207)
1(208)
1(209)
1(210)
1(211)
1(212)
1(213)
1(214)
1(215)
1(216)
1(217)
1(218)
1(219)
1(220)
1(220)
1(221)
1(222)
1(223)
1(224)
1(225)
1(226)
1(227)
1(228)
1(229)
1(230)
1(231)
1(232)
1(232)
1(233)
1(234)
1(235)
1(236)
1(237)
1(238)
1(239)
1(240)
1(241)
1(242)
1(243)
1(244)
1(245)
1(246)
1(247)
)

// featurePointNormals

254
(
1(0)
1(0)
1(0)
1(1)
1(1)
1(1)
1(2)
1(2)
1(3)
1(3)
1(3)
1(49)
1(4)
1(4)
1(5)
1(5)
1(6)
1(10)
1(8)
1(12)
1(7)
1(17)
1(10)
1(11)
1(11)
1(12)
1(12)
1(13)
1(14)
1(14)
1(15)
1(16)
1(17)
1(18)
1(18)
1(20)
1(21)
1(22)
1(22)
1(28)
1(24)
1(24)
1(27)
1(27)
1(28)
1(29)
1(29)
1(31)
1(34)
1(33)
1(33)
1(34)
1(35)
1(35)
1(37)
1(37)
1(38)
1(39)
1(39)
1(44)
1(42)
1(43)
1(43)
1(44)
1(45)
1(45)
1(46)
1(47)
1(48)
1(48)
1(50)
1(51)
1(51)
1(53)
1(53)
1(55)
1(55)
1(56)
1(56)
1(57)
1(57)
1(58)
1(58)
1(61)
1(61)
1(62)
1(62)
1(63)
1(63)
1(65)
1(65)
1(67)
1(67)
1(68)
1(68)
1(74)
1(70)
1(73)
1(74)
1(74)
1(75)
1(75)
1(80)
1(77)
1(79)
1(79)
1(80)
1(80)
1(81)
1(81)
1(86)
1(82)
1(85)
1(85)
1(86)
1(86)
1(87)
1(87)
1(87)
2(250 240)
1(88)
1(90)
1(90)
1(91)
1(92)
3(97 125 141)
1(93)
1(93)
1(95)
1(95)
1(95)
1(96)
2(97 120)
1(96)
3(97 125 120)
1(100)
1(101)
1(102)
1(102)
1(103)
1(103)
1(104)
1(104)
1(105)
1(107)
1(108)
1(109)
1(109)
1(109)
1(114)
1(114)
1(115)
1(118)
1(119)
1(120)
1(124)
1(122)
1(122)
1(123)
1(123)
1(125)
3(135 154 141)
1(248)
1(127)
1(128)
1(132)
1(128)
1(129)
1(129)
1(130)
1(130)
1(131)
1(132)
3(135 154 145)
1(136)
1(139)
1(139)
1(137)
1(137)
1(138)
1(140)
1(143)
1(143)
2(145 154)
1(144)
1(148)
1(148)
1(148)
1(149)
1(150)
1(151)
1(155)
1(155)
1(155)
1(156)
1(156)
1(158)
1(160)
1(160)
1(160)
1(161)
1(161)
1(166)
1(167)
1(167)
1(167)
1(168)
1(172)
1(174)
1(176)
1(176)
1(177)
1(181)
1(181)
1(182)
2(250 240)
1(184)
1(184)
1(185)
1(188)
1(188)
1(188)
1(196)
1(194)
1(194)
1(196)
1(201)
1(199)
1(199)
1(201)
1(205)
1(203)
1(203)
1(205)
1(209)
1(207)
1(208)
1(209)
1(208)
1(208)
1(213)
1(214)
1(214)
1(214)
1(220)
1(220)
1(226)
1(226)
1(233)
1(227)
1(233)
1(232)
1(232)
1(233)
)

// featurePointEdges

254
(
4(6 137 251 501)
4(93 134 251 503)
4(93 6 320 324)
4(7 14 252 258)
4(8 94 252 253)
4(7 8 287 291)
4(9 43 253 300)
4(94 9 291 298)
4(10 15 254 276)
4(10 95 259 260)
4(95 100 254 268)
4(96 45 255 300)
4(11 12 255 256)
4(96 11 303 311)
4(13 101 256 262)
4(12 13 311 315)
4(97 98 261 276)
4(97 16 257 264)
4(98 15 257 259)
4(99 19 258 263)
4(99 14 281 287)
4(100 25 260 271)
4(16 20 261 266)
4(17 21 262 265)
4(101 17 315 323)
4(18 24 263 267)
4(18 19 277 281)
4(20 23 264 270)
4(22 103 265 269)
4(21 22 323 327)
4(23 102 266 267)
4(102 24 270 277)
4(25 104 268 272)
4(26 27 269 273)
4(103 26 327 335)
4(104 105 271 274)
4(105 106 272 279)
4(28 107 273 275)
4(27 28 335 340)
4(106 31 274 282)
4(29 30 275 278)
4(107 29 340 465)
4(108 109 278 280)
4(30 108 465 466)
4(31 110 279 283)
4(32 33 280 284)
4(109 32 466 473)
4(110 111 282 285)
4(111 34 283 289)
4(112 113 284 286)
4(112 33 472 473)
4(34 37 285 292)
4(35 36 286 288)
4(113 35 472 478)
4(114 115 288 290)
4(36 114 478 479)
4(37 116 289 293)
4(38 39 290 294)
4(115 38 479 480)
5(116 117 40 292 297)
3(117 293 295)
4(118 119 294 296)
4(39 118 480 481)
4(40 42 295 301)
4(41 44 296 299)
4(119 41 481 486)
4(42 121 297 305)
4(43 45 298 303)
4(120 122 299 302)
4(120 44 485 486)
4(121 123 301 304)
4(46 48 302 306)
4(122 46 485 491)
4(47 49 304 307)
4(123 47 305 310)
4(124 126 306 308)
4(48 124 491 494)
4(125 127 307 309)
4(49 125 310 317)
4(50 52 308 312)
4(126 50 494 498)
4(51 53 309 313)
4(127 51 317 322)
4(128 130 312 314)
4(52 128 498 499)
4(129 131 313 316)
4(53 129 322 329)
4(54 56 314 318)
4(130 54 499 504)
4(55 57 316 319)
4(131 55 329 334)
4(132 134 318 320)
4(132 56 503 504)
4(133 136 319 321)
4(57 133 334 453)
4(135 58 321 325)
4(135 136 446 453)
4(137 139 324 326)
4(138 140 325 328)
4(58 138 446 447)
4(59 60 326 330)
4(59 139 500 501)
4(141 61 328 331)
4(140 141 447 448)
4(142 144 330 332)
4(60 142 500 502)
4(143 146 331 333)
4(143 61 442 448)
4(62 63 332 336)
4(62 144 496 502)
5(145 64 79 333 337)
4(145 146 405 442)
4(147 151 336 339)
4(147 63 495 496)
4(148 152 337 341)
4(148 64 396 407)
5(149 153 164 338 351)
4(149 150 342 343)
5(150 154 162 338 350)

13
(
65
67
176
72
182
220
221
222
80
223
2
339
354
)

4(151 65 495 497)
3(66 341 345)
5(66 152 157 379 396)
3(153 342 365)
3(154 343 349)
6(156 0 73 4 344 348)
4(155 157 344 345)
4(155 156 379 395)
4(158 159 350 352)
4(158 162 346 349)
4(159 165 346 357)
4(160 163 347 351)
6(161 3 177 178 347 348)
4(160 161 364 372)
4(3 0 373 378)
4(163 164 364 365)
5(165 166 167 352 356)
4(166 170 353 358)
3(167 353 357)
4(168 169 354 355)
4(168 67 369 371)
4(68 69 355 366)
4(169 68 369 370)
5(170 171 172 356 362)
3(171 358 359)
4(172 174 359 363)
3(173 360 363)
2(360 361)
4(173 174 361 362)
3(175 366 367)
4(175 69 368 370)
2(367 368)
3(176 371 377)
3(177 372 374)
3(178 373 374)
6(179 72 74 219 375 377)
6(70 180 214 218 375 376)
4(70 179 428 429)
6(71 183 189 208 376 386)
4(71 180 380 420)
4(73 181 378 388)
5(181 4 1 395 408)
4(74 182 430 433)
3(183 380 419)
3(184 381 385)
6(184 185 186 77 382 386)
3(185 381 406)
5(75 187 188 382 383)
4(75 186 387 406)
6(76 190 191 193 383 393)
4(187 76 384 401)
3(188 384 387)
4(77 189 385 412)
4(1 5 388 399)
3(190 389 392)
4(191 78 389 394)
5(192 78 194 390 393)
2(390 391)
3(192 391 400)
3(193 392 401)
3(194 394 400)
4(196 201 397 404)
3(195 397 398)
6(195 196 197 5 408 434)
3(197 398 399)
4(199 207 402 411)
3(198 402 403)
5(198 199 200 413 435)
4(200 202 403 404)
4(201 202 434 435)
3(79 405 407)
4(203 213 409 417)
4(204 206 409 410)
4(203 204 416 418)
3(205 410 411)
5(205 206 207 413 418)
3(208 412 419)
3(209 414 425)
4(210 212 414 415)
5(209 210 217 424 426)
3(211 415 417)
5(211 212 213 416 426)
3(214 420 427)
2(421 422)
3(215 421 423)
4(215 216 422 424)
4(216 217 423 425)
3(218 427 428)
3(219 429 430)
3(221 431 433)
3(220 431 432)
3(222 432 438)
3(223 436 438)
4(80 81 436 437)
3(224 437 441)

12
(
81
224
2
225
226
227
230
83
247
90
487
497
)

3(226 439 441)
3(225 439 440)
3(227 440 445)
4(82 230 443 445)
3(228 443 444)
6(228 82 229 83 451 484)
4(229 84 444 452)
3(232 449 452)
3(231 449 450)
6(231 232 233 84 451 456)
4(233 85 450 457)
3(235 454 457)
3(234 454 455)
6(234 235 236 85 456 460)
4(236 86 455 461)
3(238 458 461)
3(237 458 459)
6(237 238 239 86 460 467)
4(239 88 459 464)
3(240 462 464)
4(241 87 462 463)