/*--------------------------------*- C++ -*----------------------------------*\
  =========                 |
  \\      /  F ield         | OpenFOAM: The Open Source CFD Toolbox
   \\    /   O peration     | Website:  https://openfoam.org
    \\  /    A nd           | Version:  9
     \\/     M anipulation  |
\*---------------------------------------------------------------------------*/
FoamFile
{
    format      ascii;
    class       extendedFeatureEdgeMesh;
    location    "constant/extendedFeatureEdgeMesh";
    object      Gravel_bottom.extendedFeatureEdgeMesh;
}
// * * * * * * * * * * * * * * * * * * * * * * * * * * * * * * * * * * * * * //

// points

3091
(
(25 7.8125 0.25)
(24.2188 8 0.257812)
(24.2188 7.8125 0.257812)
(25 4.8125 0.25)
(24.2188 5 0.257812)
(24.2188 4.8125 0.257812)
(37.5 4.8125 0.125)
(36.7188 5 0.132812)
(36.7188 4.8125 0.132812)
(37.5 3.3125 0.125)
(36.7188 3.5 0.132812)
(36.7188 3.3125 0.132812)
(12.5 4.8125 0.375)
(11.7188 5 0.382812)
(11.7188 4.8125 0.382812)
(12.5 3.3125 0.375)
(11.7188 3.5 0.382812)
(11.7188 3.3125 0.382812)
(25 3.3125 0.25)
(24.2188 3.5 0.257812)
(24.2188 3.3125 0.257812)
(12.5 7.8125 0.375)
(11.7188 8 0.382812)
(11.7188 7.8125 0.382812)
(12.5 6.3125 0.375)
(11.7188 6.5 0.382812)
(11.7188 6.3125 0.382812)
(25 6.3125 0.25)
(24.2188 6.5 0.257812)
(24.2188 6.3125 0.257812)
(37.5 7.8125 0.125)
(36.7188 8 0.132812)
(36.7188 7.8125 0.132812)
(37.5 6.3125 0.125)
(36.7188 6.5 0.132812)
(36.7188 6.3125 0.132812)
(43.75 6.3125 0.0625)
(42.9688 6.5 0.070312)
(42.9688 6.3125 0.070312)
(31.25 6.3125 0.1875)
(30.4688 6.5 0.195312)
(30.4688 6.3125 0.195312)
(31.25 7.8125 0.1875)
(30.4688 8 0.195312)
(30.4688 7.8125 0.195312)
(18.75 6.3125 0.3125)
(17.9688 6.5 0.320312)
(17.9688 6.3125 0.320312)
(6.25 6.3125 0.4375)
(5.46875 6.5 0.445312)
(5.46875 6.3125 0.445312)
(6.25 7.8125 0.4375)
(5.46875 8 0.445312)
(5.46875 7.8125 0.445312)
(18.75 3.3125 0.3125)
(17.9688 3.5 0.320312)
(17.9688 3.3125 0.320312)
(6.25 3.3125 0.4375)
(5.46875 3.5 0.445312)
(5.46875 3.3125 0.445312)
(6.25 4.8125 0.4375)
(5.46875 5 0.445312)
(5.46875 4.8125 0.445312)
(43.75 3.3125 0.0625)
(42.9688 3.5 0.070312)
(42.9688 3.3125 0.070312)
(31.25 3.3125 0.1875)
(30.4688 3.5 0.195312)
(30.4688 3.3125 0.195312)
(31.25 4.8125 0.1875)
(30.4688 5 0.195312)
(30.4688 4.8125 0.195312)
(43.75 4.8125 0.0625)
(42.9688 5 0.070312)
(42.9688 4.8125 0.070312)
(18.75 4.8125 0.3125)
(17.9688 5 0.320312)
(17.9688 4.8125 0.320312)
(18.75 7.8125 0.3125)
(17.9688 8 0.320312)
(17.9688 7.8125 0.320312)
(43.75 7.8125 0.0625)
(42.9688 8 0.070312)
(42.9688 7.8125 0.070312)
(40.625 7.8125 0.09375)
(39.8438 8 0.101562)
(39.8438 7.8125 0.101562)
(40.625 7.0625 0.09375)
(39.8438 7.25 0.101562)
(39.8438 7.0625 0.101562)
(43.75 7.0625 0.0625)
(42.9688 7.25 0.070312)
(42.9688 7.0625 0.070312)
(15.625 7.8125 0.34375)
(14.8438 8 0.351562)
(14.8438 7.8125 0.351562)
(15.625 7.0625 0.34375)
(14.8438 7.25 0.351562)
(14.8438 7.0625 0.351562)
(18.75 7.0625 0.3125)
(17.9688 7.25 0.320312)
(17.9688 7.0625 0.320312)
(15.625 4.8125 0.34375)
(14.8438 5 0.351562)
(14.8438 4.8125 0.351562)
(15.625 4.0625 0.34375)
(14.8438 4.25 0.351562)
(14.8438 4.0625 0.351562)
(18.75 4.0625 0.3125)
(17.9688 4.25 0.320312)
(17.9688 4.0625 0.320312)
(40.625 4.8125 0.09375)
(39.8438 5 0.101562)
(39.8438 4.8125 0.101562)
(40.625 4.0625 0.09375)
(39.8438 4.25 0.101562)
(39.8438 4.0625 0.101562)
(43.75 4.0625 0.0625)
(42.9688 4.25 0.070312)
(42.9688 4.0625 0.070312)
(28.125 4.8125 0.21875)
(27.3438 5 0.226562)
(27.3438 4.8125 0.226562)
(28.125 4.0625 0.21875)
(27.3438 4.25 0.226562)
(27.3438 4.0625 0.226562)
(31.25 4.0625 0.1875)
(30.4688 4.25 0.195312)
(30.4688 4.0625 0.195312)
(28.125 3.3125 0.21875)
(27.3438 3.5 0.226562)
(27.3438 3.3125 0.226562)
(28.125 2.5625 0.21875)
(27.3438 2.75 0.226562)
(27.3438 2.5625 0.226562)
(31.25 2.5625 0.1875)
(30.4688 2.75 0.195312)
(30.4688 2.5625 0.195312)
(40.625 3.3125 0.09375)
(39.8438 3.5 0.101562)
(39.8438 3.3125 0.101562)
(40.625 2.5625 0.09375)
(39.8438 2.75 0.101562)
(39.8438 2.5625 0.101562)
(43.75 2.5625 0.0625)
(42.9688 2.75 0.070312)
(42.9688 2.5625 0.070312)
(3.125 4.8125 0.46875)
(2.34375 5 0.476562)
(2.34375 4.8125 0.476562)
(3.125 4.0625 0.46875)
(2.34375 4.25 0.476562)
(2.34375 4.0625 0.476562)
(6.25 4.0625 0.4375)
(5.46875 4.25 0.445312)
(5.46875 4.0625 0.445312)
(3.125 3.3125 0.46875)
(2.34375 3.5 0.476562)
(2.34375 3.3125 0.476562)
(3.125 2.5625 0.46875)
(2.34375 2.75 0.476562)
(2.34375 2.5625 0.476562)
(6.25 2.5625 0.4375)
(5.46875 2.75 0.445312)
(5.46875 2.5625 0.445312)
(15.625 3.3125 0.34375)
(14.8438 3.5 0.351562)
(14.8438 3.3125 0.351562)
(15.625 2.5625 0.34375)
(14.8438 2.75 0.351562)
(14.8438 2.5625 0.351562)
(18.75 2.5625 0.3125)
(17.9688 2.75 0.320312)
(17.9688 2.5625 0.320312)
(3.125 7.8125 0.46875)
(2.34375 8 0.476562)
(2.34375 7.8125 0.476562)
(3.125 7.0625 0.46875)
(2.34375 7.25 0.476562)
(2.34375 7.0625 0.476562)
(6.25 7.0625 0.4375)
(5.46875 7.25 0.445312)
(5.46875 7.0625 0.445312)
(3.125 6.3125 0.46875)
(2.34375 6.5 0.476562)
(2.34375 6.3125 0.476562)
(3.125 5.5625 0.46875)
(2.34375 5.75 0.476562)
(2.34375 5.5625 0.476562)
(6.25 5.5625 0.4375)
(5.46875 5.75 0.445312)
(5.46875 5.5625 0.445312)
(15.625 6.3125 0.34375)
(14.8438 6.5 0.351562)
(14.8438 6.3125 0.351562)
(15.625 5.5625 0.34375)
(14.8438 5.75 0.351562)
(14.8438 5.5625 0.351562)
(18.75 5.5625 0.3125)
(17.9688 5.75 0.320312)
(17.9688 5.5625 0.320312)
(28.125 7.8125 0.21875)
(27.3438 8 0.226562)
(27.3438 7.8125 0.226562)
(28.125 7.0625 0.21875)
(27.3438 7.25 0.226562)
(27.3438 7.0625 0.226562)
(31.25 7.0625 0.1875)
(30.4688 7.25 0.195312)
(30.4688 7.0625 0.195312)
(28.125 6.3125 0.21875)
(27.3438 6.5 0.226562)
(27.3438 6.3125 0.226562)
(28.125 5.5625 0.21875)
(27.3438 5.75 0.226562)
(27.3438 5.5625 0.226562)
(31.25 5.5625 0.1875)
(30.4688 5.75 0.195312)
(30.4688 5.5625 0.195312)
(40.625 6.3125 0.09375)
(39.8438 6.5 0.101562)
(39.8438 6.3125 0.101562)
(40.625 5.5625 0.09375)
(39.8438 5.75 0.101562)
(39.8438 5.5625 0.101562)
(43.75 5.5625 0.0625)
(42.9688 5.75 0.070312)
(42.9688 5.5625 0.070312)
(46.875 6.3125 0.03125)
(46.0938 6.5 0.039062)
(46.0938 6.3125 0.039062)
(46.875 5.5625 0.03125)
(46.0938 5.75 0.039062)
(46.0938 5.5625 0.039062)
(34.375 6.3125 0.15625)
(33.5938 6.5 0.164062)
(33.5938 6.3125 0.164062)
(34.375 5.5625 0.15625)
(33.5938 5.75 0.164062)
(33.5938 5.5625 0.164062)
(37.5 5.5625 0.125)
(36.7188 5.75 0.132812)
(36.7188 5.5625 0.132812)
(34.375 7.8125 0.15625)
(33.5938 8 0.164062)
(33.5938 7.8125 0.164062)
(34.375 7.0625 0.15625)
(33.5938 7.25 0.164062)
(33.5938 7.0625 0.164062)
(37.5 7.0625 0.125)
(36.7188 7.25 0.132812)
(36.7188 7.0625 0.132812)
(21.875 6.3125 0.28125)
(21.0938 6.5 0.289062)
(21.0938 6.3125 0.289062)
(21.875 5.5625 0.28125)
(21.0938 5.75 0.289062)
(21.0938 5.5625 0.289062)
(25 5.5625 0.25)
(24.2188 5.75 0.257812)
(24.2188 5.5625 0.257812)
(9.375 6.3125 0.40625)
(8.59375 6.5 0.414062)
(8.59375 6.3125 0.414062)
(9.375 5.5625 0.40625)
(8.59375 5.75 0.414062)
(8.59375 5.5625 0.414062)
(12.5 5.5625 0.375)
(11.7188 5.75 0.382812)
(11.7188 5.5625 0.382812)
(9.375 7.8125 0.40625)
(8.59375 8 0.414062)
(8.59375 7.8125 0.414062)
(9.375 7.0625 0.40625)
(8.59375 7.25 0.414062)
(8.59375 7.0625 0.414062)
(12.5 7.0625 0.375)
(11.7188 7.25 0.382812)
(11.7188 7.0625 0.382812)
(21.875 3.3125 0.28125)
(21.0938 3.5 0.289062)
(21.0938 3.3125 0.289062)
(21.875 2.5625 0.28125)
(21.0938 2.75 0.289062)
(21.0938 2.5625 0.289062)
(25 2.5625 0.25)
(24.2188 2.75 0.257812)
(24.2188 2.5625 0.257812)
(9.375 3.3125 0.40625)
(8.59375 3.5 0.414062)
(8.59375 3.3125 0.414062)
(9.375 2.5625 0.40625)
(8.59375 2.75 0.414062)
(8.59375 2.5625 0.414062)
(12.5 2.5625 0.375)
(11.7188 2.75 0.382812)
(11.7188 2.5625 0.382812)
(9.375 4.8125 0.40625)
(8.59375 5 0.414062)
(8.59375 4.8125 0.414062)
(9.375 4.0625 0.40625)
(8.59375 4.25 0.414062)
(8.59375 4.0625 0.414062)
(12.5 4.0625 0.375)
(11.7188 4.25 0.382812)
(11.7188 4.0625 0.382812)
(46.875 3.3125 0.03125)
(46.0938 3.5 0.039062)
(46.0938 3.3125 0.039062)
(46.875 2.5625 0.03125)
(46.0938 2.75 0.039062)
(46.0938 2.5625 0.039062)
(34.375 3.3125 0.15625)
(33.5938 3.5 0.164062)
(33.5938 3.3125 0.164062)
(34.375 2.5625 0.15625)
(33.5938 2.75 0.164062)
(33.5938 2.5625 0.164062)
(37.5 2.5625 0.125)
(36.7188 2.75 0.132812)
(36.7188 2.5625 0.132812)
(34.375 4.8125 0.15625)
(33.5938 5 0.164062)
(33.5938 4.8125 0.164062)
(34.375 4.0625 0.15625)
(33.5938 4.25 0.164062)
(33.5938 4.0625 0.164062)
(37.5 4.0625 0.125)
(36.7188 4.25 0.132812)
(36.7188 4.0625 0.132812)
(46.875 4.8125 0.03125)
(46.0938 5 0.039062)
(46.0938 4.8125 0.039062)
(46.875 4.0625 0.03125)
(46.0938 4.25 0.039062)
(46.0938 4.0625 0.039062)
(21.875 4.8125 0.28125)
(21.0938 5 0.289062)
(21.0938 4.8125 0.289062)
(21.875 4.0625 0.28125)
(21.0938 4.25 0.289062)
(21.0938 4.0625 0.289062)
(25 4.0625 0.25)
(24.2188 4.25 0.257812)
(24.2188 4.0625 0.257812)
(21.875 7.8125 0.28125)
(21.0938 8 0.289062)
(21.0938 7.8125 0.289062)
(21.875 7.0625 0.28125)
(21.0938 7.25 0.289062)
(21.0938 7.0625 0.289062)
(25 7.0625 0.25)
(24.2188 7.25 0.257812)
(24.2188 7.0625 0.257812)
(46.875 7.8125 0.03125)
(46.0938 8 0.039062)
(46.0938 7.8125 0.039062)
(46.875 7.0625 0.03125)
(46.0938 7.25 0.039062)
(46.0938 7.0625 0.039062)
(48.4375 7.0625 0.015625)
(47.6562 7.25 0.023437)
(47.6562 7.0625 0.023437)
(48.4375 6.6875 0.015625)
(47.6562 6.875 0.023437)
(47.6562 6.6875 0.023437)
(45.3125 7.0625 0.046875)
(44.5312 7.25 0.054687)
(44.5312 7.0625 0.054687)
(45.3125 6.6875 0.046875)
(44.5312 6.875 0.054687)
(44.5312 6.6875 0.054687)
(46.875 6.6875 0.03125)
(46.0938 6.875 0.039062)
(46.0938 6.6875 0.039062)
(45.3125 7.8125 0.046875)
(44.5312 8 0.054687)
(44.5312 7.8125 0.054687)
(45.3125 7.4375 0.046875)
(44.5312 7.625 0.054687)
(44.5312 7.4375 0.054687)
(46.875 7.4375 0.03125)
(46.0938 7.625 0.039062)
(46.0938 7.4375 0.039062)
(23.4375 7.0625 0.265625)
(22.6562 7.25 0.273437)
(22.6562 7.0625 0.273437)
(23.4375 6.6875 0.265625)
(22.6562 6.875 0.273437)
(22.6562 6.6875 0.273437)
(25 6.6875 0.25)
(24.2188 6.875 0.257812)
(24.2188 6.6875 0.257812)
(21.875 6.6875 0.28125)
(21.0938 6.875 0.289062)
(21.0938 6.6875 0.289062)
(21.875 7.4375 0.28125)
(21.0938 7.625 0.289062)
(21.0938 7.4375 0.289062)
(23.4375 4.0625 0.265625)
(22.6562 4.25 0.273437)
(22.6562 4.0625 0.273437)
(23.4375 3.6875 0.265625)
(22.6562 3.875 0.273437)
(22.6562 3.6875 0.273437)
(25 3.6875 0.25)
(24.2188 3.875 0.257812)
(24.2188 3.6875 0.257812)
(21.875 3.6875 0.28125)
(21.0938 3.875 0.289062)
(21.0938 3.6875 0.289062)
(21.875 4.4375 0.28125)
(21.0938 4.625 0.289062)
(21.0938 4.4375 0.289062)
(48.4375 4.0625 0.015625)
(47.6562 4.25 0.023437)
(47.6562 4.0625 0.023437)
(48.4375 3.6875 0.015625)
(47.6562 3.875 0.023437)
(47.6562 3.6875 0.023437)
(45.3125 4.0625 0.046875)
(44.5312 4.25 0.054687)
(44.5312 4.0625 0.054687)
(45.3125 3.6875 0.046875)
(44.5312 3.875 0.054687)
(44.5312 3.6875 0.054687)
(46.875 3.6875 0.03125)
(46.0938 3.875 0.039062)
(46.0938 3.6875 0.039062)
(45.3125 4.8125 0.046875)
(44.5312 5 0.054687)
(44.5312 4.8125 0.054687)
(45.3125 4.4375 0.046875)
(44.5312 4.625 0.054687)
(44.5312 4.4375 0.054687)
(46.875 4.4375 0.03125)
(46.0938 4.625 0.039062)
(46.0938 4.4375 0.039062)
(35.9375 4.0625 0.140625)
(35.1562 4.25 0.148437)
(35.1562 4.0625 0.148437)
(35.9375 3.6875 0.140625)
(35.1562 3.875 0.148437)
(35.1562 3.6875 0.148437)
(37.5 3.6875 0.125)
(36.7188 3.875 0.132812)
(36.7188 3.6875 0.132812)
(32.8125 4.0625 0.171875)
(32.0312 4.25 0.179687)
(32.0312 4.0625 0.179687)
(32.8125 3.6875 0.171875)
(32.0312 3.875 0.179687)
(32.0312 3.6875 0.179687)
(34.375 3.6875 0.15625)
(33.5938 3.875 0.164062)
(33.5938 3.6875 0.164062)
(32.8125 4.8125 0.171875)
(32.0312 5 0.179687)
(32.0312 4.8125 0.179687)
(32.8125 4.4375 0.171875)
(32.0312 4.625 0.179687)
(32.0312 4.4375 0.179687)
(34.375 4.4375 0.15625)
(33.5938 4.625 0.164062)
(33.5938 4.4375 0.164062)
(35.9375 2.5625 0.140625)
(35.1562 2.75 0.148437)
(35.1562 2.5625 0.148437)
(35.9375 2.1875 0.140625)
(35.1562 2.375 0.148437)
(35.1562 2.1875 0.148437)
(37.5 2.1875 0.125)
(36.7188 2.375 0.132812)
(36.7188 2.1875 0.132812)
(32.8125 2.5625 0.171875)
(32.0312 2.75 0.179687)
(32.0312 2.5625 0.179687)
(32.8125 2.1875 0.171875)
(32.0312 2.375 0.179687)
(32.0312 2.1875 0.179687)
(34.375 2.1875 0.15625)
(33.5938 2.375 0.164062)
(33.5938 2.1875 0.164062)
(32.8125 3.3125 0.171875)
(32.0312 3.5 0.179687)
(32.0312 3.3125 0.179687)
(32.8125 2.9375 0.171875)
(32.0312 3.125 0.179687)
(32.0312 2.9375 0.179687)
(34.375 2.9375 0.15625)
(33.5938 3.125 0.164062)
(33.5938 2.9375 0.164062)
(48.4375 2.5625 0.015625)
(47.6562 2.75 0.023437)
(47.6562 2.5625 0.023437)
(48.4375 2.1875 0.015625)
(47.6562 2.375 0.023437)
(47.6562 2.1875 0.023437)
(45.3125 2.5625 0.046875)
(44.5312 2.75 0.054687)
(44.5312 2.5625 0.054687)
(45.3125 2.1875 0.046875)
(44.5312 2.375 0.054687)
(44.5312 2.1875 0.054687)
(46.875 2.1875 0.03125)
(46.0938 2.375 0.039062)
(46.0938 2.1875 0.039062)
(45.3125 3.3125 0.046875)
(44.5312 3.5 0.054687)
(44.5312 3.3125 0.054687)
(45.3125 2.9375 0.046875)
(44.5312 3.125 0.054687)
(44.5312 2.9375 0.054687)
(46.875 2.9375 0.03125)
(46.0938 3.125 0.039062)
(46.0938 2.9375 0.039062)
(10.9375 4.0625 0.390625)
(10.1562 4.25 0.398437)
(10.1562 4.0625 0.398437)
(10.9375 3.6875 0.390625)
(10.1562 3.875 0.398437)
(10.1562 3.6875 0.398437)
(12.5 3.6875 0.375)
(11.7188 3.875 0.382812)
(11.7188 3.6875 0.382812)
(7.8125 4.0625 0.421875)
(7.03125 4.25 0.429687)
(7.03125 4.0625 0.429687)
(7.8125 3.6875 0.421875)
(7.03125 3.875 0.429687)
(7.03125 3.6875 0.429687)
(9.375 3.6875 0.40625)
(8.59375 3.875 0.414062)
(8.59375 3.6875 0.414062)
(7.8125 4.8125 0.421875)
(7.03125 5 0.429687)
(7.03125 4.8125 0.429687)
(7.8125 4.4375 0.421875)
(7.03125 4.625 0.429687)
(7.03125 4.4375 0.429687)
(9.375 4.4375 0.40625)
(8.59375 4.625 0.414062)
(8.59375 4.4375 0.414062)
(10.9375 2.5625 0.390625)
(10.1562 2.75 0.398437)
(10.1562 2.5625 0.398437)
(10.9375 2.1875 0.390625)
(10.1562 2.375 0.398437)
(10.1562 2.1875 0.398437)
(12.5 2.1875 0.375)
(11.7188 2.375 0.382812)
(11.7188 2.1875 0.382812)
(7.8125 2.5625 0.421875)
(7.03125 2.75 0.429687)
(7.03125 2.5625 0.429687)
(7.8125 2.1875 0.421875)
(7.03125 2.375 0.429687)
(7.03125 2.1875 0.429687)
(9.375 2.1875 0.40625)
(8.59375 2.375 0.414062)
(8.59375 2.1875 0.414062)
(7.8125 3.3125 0.421875)
(7.03125 3.5 0.429687)
(7.03125 3.3125 0.429687)
(7.8125 2.9375 0.421875)
(7.03125 3.125 0.429687)
(7.03125 2.9375 0.429687)
(9.375 2.9375 0.40625)
(8.59375 3.125 0.414062)
(8.59375 2.9375 0.414062)
(23.4375 2.5625 0.265625)
(22.6562 2.75 0.273437)
(22.6562 2.5625 0.273437)
(23.4375 2.1875 0.265625)
(22.6562 2.375 0.273437)
(22.6562 2.1875 0.273437)
(25 2.1875 0.25)
(24.2188 2.375 0.257812)
(24.2188 2.1875 0.257812)
(21.875 2.1875 0.28125)
(21.0938 2.375 0.289062)
(21.0938 2.1875 0.289062)
(21.875 2.9375 0.28125)
(21.0938 3.125 0.289062)
(21.0938 2.9375 0.289062)
(10.9375 7.0625 0.390625)
(10.1562 7.25 0.398437)
(10.1562 7.0625 0.398437)
(10.9375 6.6875 0.390625)
(10.1562 6.875 0.398437)
(10.1562 6.6875 0.398437)
(12.5 6.6875 0.375)
(11.7188 6.875 0.382812)
(11.7188 6.6875 0.382812)
(7.8125 7.0625 0.421875)
(7.03125 7.25 0.429687)
(7.03125 7.0625 0.429687)
(7.8125 6.6875 0.421875)
(7.03125 6.875 0.429687)
(7.03125 6.6875 0.429687)
(9.375 6.6875 0.40625)
(8.59375 6.875 0.414062)
(8.59375 6.6875 0.414062)
(7.8125 7.8125 0.421875)
(7.03125 8 0.429687)
(7.03125 7.8125 0.429687)
(7.8125 7.4375 0.421875)
(7.03125 7.625 0.429687)
(7.03125 7.4375 0.429687)
(9.375 7.4375 0.40625)
(8.59375 7.625 0.414062)
(8.59375 7.4375 0.414062)
(10.9375 5.5625 0.390625)
(10.1562 5.75 0.398437)
(10.1562 5.5625 0.398437)
(10.9375 5.1875 0.390625)
(10.1562 5.375 0.398437)
(10.1562 5.1875 0.398437)
(12.5 5.1875 0.375)
(11.7188 5.375 0.382812)
(11.7188 5.1875 0.382812)
(7.8125 5.5625 0.421875)
(7.03125 5.75 0.429687)
(7.03125 5.5625 0.429687)
(7.8125 5.1875 0.421875)
(7.03125 5.375 0.429687)
(7.03125 5.1875 0.429687)
(9.375 5.1875 0.40625)
(8.59375 5.375 0.414062)
(8.59375 5.1875 0.414062)
(7.8125 6.3125 0.421875)
(7.03125 6.5 0.429687)
(7.03125 6.3125 0.429687)
(7.8125 5.9375 0.421875)
(7.03125 6.125 0.429687)
(7.03125 5.9375 0.429687)
(9.375 5.9375 0.40625)
(8.59375 6.125 0.414062)
(8.59375 5.9375 0.414062)
(23.4375 5.5625 0.265625)
(22.6562 5.75 0.273437)
(22.6562 5.5625 0.273437)
(23.4375 5.1875 0.265625)
(22.6562 5.375 0.273437)
(22.6562 5.1875 0.273437)
(25 5.1875 0.25)
(24.2188 5.375 0.257812)
(24.2188 5.1875 0.257812)
(21.875 5.1875 0.28125)
(21.0938 5.375 0.289062)
(21.0938 5.1875 0.289062)
(21.875 5.9375 0.28125)
(21.0938 6.125 0.289062)
(21.0938 5.9375 0.289062)
(35.9375 7.0625 0.140625)
(35.1562 7.25 0.148437)
(35.1562 7.0625 0.148437)
(35.9375 6.6875 0.140625)
(35.1562 6.875 0.148437)
(35.1562 6.6875 0.148437)
(37.5 6.6875 0.125)
(36.7188 6.875 0.132812)
(36.7188 6.6875 0.132812)
(32.8125 7.0625 0.171875)
(32.0312 7.25 0.179687)
(32.0312 7.0625 0.179687)
(32.8125 6.6875 0.171875)
(32.0312 6.875 0.179687)
(32.0312 6.6875 0.179687)
(34.375 6.6875 0.15625)
(33.5938 6.875 0.164062)
(33.5938 6.6875 0.164062)
(32.8125 7.8125 0.171875)
(32.0312 8 0.179687)
(32.0312 7.8125 0.179687)
(32.8125 7.4375 0.171875)
(32.0312 7.625 0.179687)
(32.0312 7.4375 0.179687)
(34.375 7.4375 0.15625)
(33.5938 7.625 0.164062)
(33.5938 7.4375 0.164062)
(35.9375 5.5625 0.140625)
(35.1562 5.75 0.148437)
(35.1562 5.5625 0.148437)
(35.9375 5.1875 0.140625)
(35.1562 5.375 0.148437)
(35.1562 5.1875 0.148437)
(37.5 5.1875 0.125)
(36.7188 5.375 0.132812)
(36.7188 5.1875 0.132812)
(32.8125 5.5625 0.171875)
(32.0312 5.75 0.179687)
(32.0312 5.5625 0.179687)
(32.8125 5.1875 0.171875)
(32.0312 5.375 0.179687)
(32.0312 5.1875 0.179687)
(34.375 5.1875 0.15625)
(33.5938 5.375 0.164062)
(33.5938 5.1875 0.164062)
(32.8125 6.3125 0.171875)
(32.0312 6.5 0.179687)
(32.0312 6.3125 0.179687)
(32.8125 5.9375 0.171875)
(32.0312 6.125 0.179687)
(32.0312 5.9375 0.179687)
(34.375 5.9375 0.15625)
(33.5938 6.125 0.164062)
(33.5938 5.9375 0.164062)
(48.4375 5.5625 0.015625)
(47.6562 5.75 0.023437)
(47.6562 5.5625 0.023437)
(48.4375 5.1875 0.015625)
(47.6562 5.375 0.023437)
(47.6562 5.1875 0.023437)
(45.3125 5.5625 0.046875)
(44.5312 5.75 0.054687)
(44.5312 5.5625 0.054687)
(45.3125 5.1875 0.046875)
(44.5312 5.375 0.054687)
(44.5312 5.1875 0.054687)
(46.875 5.1875 0.03125)
(46.0938 5.375 0.039062)
(46.0938 5.1875 0.039062)
(45.3125 6.3125 0.046875)
(44.5312 6.5 0.054687)
(44.5312 6.3125 0.054687)
(45.3125 5.9375 0.046875)
(44.5312 6.125 0.054687)
(44.5312 5.9375 0.054687)
(46.875 5.9375 0.03125)
(46.0938 6.125 0.039062)
(46.0938 5.9375 0.039062)
(42.1875 5.5625 0.078125)
(41.4062 5.75 0.085937)
(41.4062 5.5625 0.085937)
(42.1875 5.1875 0.078125)
(41.4062 5.375 0.085937)
(41.4062 5.1875 0.085937)
(43.75 5.1875 0.0625)
(42.9688 5.375 0.070312)
(42.9688 5.1875 0.070312)
(39.0625 5.5625 0.109375)
(38.2812 5.75 0.117187)
(38.2812 5.5625 0.117187)
(39.0625 5.1875 0.109375)
(38.2812 5.375 0.117187)
(38.2812 5.1875 0.117187)
(40.625 5.1875 0.09375)
(39.8438 5.375 0.101562)
(39.8438 5.1875 0.101562)
(39.0625 6.3125 0.109375)
(38.2812 6.5 0.117187)
(38.2812 6.3125 0.117187)
(39.0625 5.9375 0.109375)
(38.2812 6.125 0.117187)
(38.2812 5.9375 0.117187)
(40.625 5.9375 0.09375)
(39.8438 6.125 0.101562)
(39.8438 5.9375 0.101562)
(29.6875 5.5625 0.203125)
(28.9062 5.75 0.210937)
(28.9062 5.5625 0.210937)
(29.6875 5.1875 0.203125)
(28.9062 5.375 0.210937)
(28.9062 5.1875 0.210937)
(31.25 5.1875 0.1875)
(30.4688 5.375 0.195312)
(30.4688 5.1875 0.195312)
(26.5625 5.5625 0.234375)
(25.7812 5.75 0.242187)
(25.7812 5.5625 0.242187)
(26.5625 5.1875 0.234375)
(25.7812 5.375 0.242187)
(25.7812 5.1875 0.242187)
(28.125 5.1875 0.21875)
(27.3438 5.375 0.226562)
(27.3438 5.1875 0.226562)
(26.5625 6.3125 0.234375)
(25.7812 6.5 0.242187)
(25.7812 6.3125 0.242187)
(26.5625 5.9375 0.234375)
(25.7812 6.125 0.242187)
(25.7812 5.9375 0.242187)
(28.125 5.9375 0.21875)
(27.3438 6.125 0.226562)
(27.3438 5.9375 0.226562)
(29.6875 7.0625 0.203125)
(28.9062 7.25 0.210937)
(28.9062 7.0625 0.210937)
(29.6875 6.6875 0.203125)
(28.9062 6.875 0.210937)
(28.9062 6.6875 0.210937)
(31.25 6.6875 0.1875)
(30.4688 6.875 0.195312)
(30.4688 6.6875 0.195312)
(26.5625 7.0625 0.234375)
(25.7812 7.25 0.242187)
(25.7812 7.0625 0.242187)
(26.5625 6.6875 0.234375)
(25.7812 6.875 0.242187)
(25.7812 6.6875 0.242187)
(28.125 6.6875 0.21875)
(27.3438 6.875 0.226562)
(27.3438 6.6875 0.226562)
(26.5625 7.8125 0.234375)
(25.7812 8 0.242187)
(25.7812 7.8125 0.242187)
(26.5625 7.4375 0.234375)
(25.7812 7.625 0.242187)
(25.7812 7.4375 0.242187)
(28.125 7.4375 0.21875)
(27.3438 7.625 0.226562)
(27.3438 7.4375 0.226562)
(17.1875 5.5625 0.328125)
(16.4062 5.75 0.335937)
(16.4062 5.5625 0.335937)
(17.1875 5.1875 0.328125)
(16.4062 5.375 0.335937)
(16.4062 5.1875 0.335937)
(18.75 5.1875 0.3125)
(17.9688 5.375 0.320312)
(17.9688 5.1875 0.320312)
(14.0625 5.5625 0.359375)
(13.2812 5.75 0.367187)
(13.2812 5.5625 0.367187)
(14.0625 5.1875 0.359375)
(13.2812 5.375 0.367187)
(13.2812 5.1875 0.367187)
(15.625 5.1875 0.34375)
(14.8438 5.375 0.351562)
(14.8438 5.1875 0.351562)
(14.0625 6.3125 0.359375)
(13.2812 6.5 0.367187)
(13.2812 6.3125 0.367187)
(14.0625 5.9375 0.359375)
(13.2812 6.125 0.367187)
(13.2812 5.9375 0.367187)
(15.625 5.9375 0.34375)
(14.8438 6.125 0.351562)
(14.8438 5.9375 0.351562)
(4.6875 5.5625 0.453125)
(3.90625 5.75 0.460937)
(3.90625 5.5625 0.460937)
(4.6875 5.1875 0.453125)
(3.90625 5.375 0.460937)
(3.90625 5.1875 0.460937)
(6.25 5.1875 0.4375)
(5.46875 5.375 0.445312)
(5.46875 5.1875 0.445312)
(1.5625 5.5625 0.484375)
(0.78125 5.75 0.492187)
(0.78125 5.5625 0.492187)
(1.5625 5.1875 0.484375)
(0.78125 5.375 0.492187)
(0.78125 5.1875 0.492187)
(3.125 5.1875 0.46875)
(2.34375 5.375 0.476562)
(2.34375 5.1875 0.476562)
(1.5625 6.3125 0.484375)
(0.78125 6.5 0.492187)
(0.78125 6.3125 0.492187)
(1.5625 5.9375 0.484375)
(0.78125 6.125 0.492187)
(0.78125 5.9375 0.492187)
(3.125 5.9375 0.46875)
(2.34375 6.125 0.476562)
(2.34375 5.9375 0.476562)
(4.6875 7.0625 0.453125)
(3.90625 7.25 0.460937)
(3.90625 7.0625 0.460937)
(4.6875 6.6875 0.453125)
(3.90625 6.875 0.460937)
(3.90625 6.6875 0.460937)
(6.25 6.6875 0.4375)
(5.46875 6.875 0.445312)
(5.46875 6.6875 0.445312)
(1.5625 7.0625 0.484375)
(0.78125 7.25 0.492187)
(0.78125 7.0625 0.492187)
(1.5625 6.6875 0.484375)
(0.78125 6.875 0.492187)
(0.78125 6.6875 0.492187)
(3.125 6.6875 0.46875)
(2.34375 6.875 0.476562)
(2.34375 6.6875 0.476562)
(1.5625 7.8125 0.484375)
(0.78125 8 0.492187)
(0.78125 7.8125 0.492187)
(1.5625 7.4375 0.484375)
(0.78125 7.625 0.492187)
(0.78125 7.4375 0.492187)
(3.125 7.4375 0.46875)
(2.34375 7.625 0.476562)
(2.34375 7.4375 0.476562)
(17.1875 2.5625 0.328125)
(16.4062 2.75 0.335937)
(16.4062 2.5625 0.335937)
(17.1875 2.1875 0.328125)
(16.4062 2.375 0.335937)
(16.4062 2.1875 0.335937)
(18.75 2.1875 0.3125)
(17.9688 2.375 0.320312)
(17.9688 2.1875 0.320312)
(14.0625 2.5625 0.359375)
(13.2812 2.75 0.367187)
(13.2812 2.5625 0.367187)
(14.0625 2.1875 0.359375)
(13.2812 2.375 0.367187)
(13.2812 2.1875 0.367187)
(15.625 2.1875 0.34375)
(14.8438 2.375 0.351562)
(14.8438 2.1875 0.351562)
(14.0625 3.3125 0.359375)
(13.2812 3.5 0.367187)
(13.2812 3.3125 0.367187)
(14.0625 2.9375 0.359375)
(13.2812 3.125 0.367187)
(13.2812 2.9375 0.367187)
(15.625 2.9375 0.34375)
(14.8438 3.125 0.351562)
(14.8438 2.9375 0.351562)
(4.6875 2.5625 0.453125)
(3.90625 2.75 0.460937)
(3.90625 2.5625 0.460937)
(4.6875 2.1875 0.453125)
(3.90625 2.375 0.460937)
(3.90625 2.1875 0.460937)
(6.25 2.1875 0.4375)
(5.46875 2.375 0.445312)
(5.46875 2.1875 0.445312)
(1.5625 2.5625 0.484375)
(0.78125 2.75 0.492187)
(0.78125 2.5625 0.492187)
(1.5625 2.1875 0.484375)
(0.78125 2.375 0.492187)
(0.78125 2.1875 0.492187)
(3.125 2.1875 0.46875)
(2.34375 2.375 0.476562)
(2.34375 2.1875 0.476562)
(1.5625 3.3125 0.484375)
(0.78125 3.5 0.492187)
(0.78125 3.3125 0.492187)
(1.5625 2.9375 0.484375)
(0.78125 3.125 0.492187)
(0.78125 2.9375 0.492187)
(3.125 2.9375 0.46875)
(2.34375 3.125 0.476562)
(2.34375 2.9375 0.476562)
(4.6875 4.0625 0.453125)
(3.90625 4.25 0.460937)
(3.90625 4.0625 0.460937)
(4.6875 3.6875 0.453125)
(3.90625 3.875 0.460937)
(3.90625 3.6875 0.460937)
(6.25 3.6875 0.4375)
(5.46875 3.875 0.445312)
(5.46875 3.6875 0.445312)
(1.5625 4.0625 0.484375)
(0.78125 4.25 0.492187)
(0.78125 4.0625 0.492187)
(1.5625 3.6875 0.484375)
(0.78125 3.875 0.492187)
(0.78125 3.6875 0.492187)
(3.125 3.6875 0.46875)
(2.34375 3.875 0.476562)
(2.34375 3.6875 0.476562)
(1.5625 4.8125 0.484375)
(0.78125 5 0.492187)
(0.78125 4.8125 0.492187)
(1.5625 4.4375 0.484375)
(0.78125 4.625 0.492187)
(0.78125 4.4375 0.492187)
(3.125 4.4375 0.46875)
(2.34375 4.625 0.476562)
(2.34375 4.4375 0.476562)
(42.1875 2.5625 0.078125)
(41.4062 2.75 0.085937)
(41.4062 2.5625 0.085937)
(42.1875 2.1875 0.078125)
(41.4062 2.375 0.085937)
(41.4062 2.1875 0.085937)
(43.75 2.1875 0.0625)
(42.9688 2.375 0.070312)
(42.9688 2.1875 0.070312)
(39.0625 2.5625 0.109375)
(38.2812 2.75 0.117187)
(38.2812 2.5625 0.117187)
(39.0625 2.1875 0.109375)
(38.2812 2.375 0.117187)
(38.2812 2.1875 0.117187)
(40.625 2.1875 0.09375)
(39.8438 2.375 0.101562)
(39.8438 2.1875 0.101562)
(39.0625 3.3125 0.109375)
(38.2812 3.5 0.117187)
(38.2812 3.3125 0.117187)
(39.0625 2.9375 0.109375)
(38.2812 3.125 0.117187)
(38.2812 2.9375 0.117187)
(40.625 2.9375 0.09375)
(39.8438 3.125 0.101562)
(39.8438 2.9375 0.101562)
(29.6875 2.5625 0.203125)
(28.9062 2.75 0.210937)
(28.9062 2.5625 0.210937)
(29.6875 2.1875 0.203125)
(28.9062 2.375 0.210937)
(28.9062 2.1875 0.210937)
(31.25 2.1875 0.1875)
(30.4688 2.375 0.195312)
(30.4688 2.1875 0.195312)
(26.5625 2.5625 0.234375)
(25.7812 2.75 0.242187)
(25.7812 2.5625 0.242187)
(26.5625 2.1875 0.234375)
(25.7812 2.375 0.242187)
(25.7812 2.1875 0.242187)
(28.125 2.1875 0.21875)
(27.3438 2.375 0.226562)
(27.3438 2.1875 0.226562)
(26.5625 3.3125 0.234375)
(25.7812 3.5 0.242187)
(25.7812 3.3125 0.242187)
(26.5625 2.9375 0.234375)
(25.7812 3.125 0.242187)
(25.7812 2.9375 0.242187)
(28.125 2.9375 0.21875)
(27.3438 3.125 0.226562)
(27.3438 2.9375 0.226562)
(29.6875 4.0625 0.203125)
(28.9062 4.25 0.210937)
(28.9062 4.0625 0.210937)
(29.6875 3.6875 0.203125)
(28.9062 3.875 0.210937)
(28.9062 3.6875 0.210937)
(31.25 3.6875 0.1875)
(30.4688 3.875 0.195312)
(30.4688 3.6875 0.195312)
(26.5625 4.0625 0.234375)
(25.7812 4.25 0.242187)
(25.7812 4.0625 0.242187)
(26.5625 3.6875 0.234375)
(25.7812 3.875 0.242187)
(25.7812 3.6875 0.242187)
(28.125 3.6875 0.21875)
(27.3438 3.875 0.226562)
(27.3438 3.6875 0.226562)
(26.5625 4.8125 0.234375)
(25.7812 5 0.242187)
(25.7812 4.8125 0.242187)
(26.5625 4.4375 0.234375)
(25.7812 4.625 0.242187)
(25.7812 4.4375 0.242187)
(28.125 4.4375 0.21875)
(27.3438 4.625 0.226562)
(27.3438 4.4375 0.226562)
(42.1875 4.0625 0.078125)
(41.4062 4.25 0.085937)
(41.4062 4.0625 0.085937)
(42.1875 3.6875 0.078125)
(41.4062 3.875 0.085937)
(41.4062 3.6875 0.085937)
(43.75 3.6875 0.0625)
(42.9688 3.875 0.070312)
(42.9688 3.6875 0.070312)
(39.0625 4.0625 0.109375)
(38.2812 4.25 0.117187)
(38.2812 4.0625 0.117187)
(39.0625 3.6875 0.109375)
(38.2812 3.875 0.117187)
(38.2812 3.6875 0.117187)
(40.625 3.6875 0.09375)
(39.8438 3.875 0.101562)
(39.8438 3.6875 0.101562)
(39.0625 4.8125 0.109375)
(38.2812 5 0.117187)
(38.2812 4.8125 0.117187)
(39.0625 4.4375 0.109375)
(38.2812 4.625 0.117187)
(38.2812 4.4375 0.117187)
(40.625 4.4375 0.09375)
(39.8438 4.625 0.101562)
(39.8438 4.4375 0.101562)
(17.1875 4.0625 0.328125)
(16.4062 4.25 0.335937)
(16.4062 4.0625 0.335937)
(17.1875 3.6875 0.328125)
(16.4062 3.875 0.335937)
(16.4062 3.6875 0.335937)
(18.75 3.6875 0.3125)
(17.9688 3.875 0.320312)
(17.9688 3.6875 0.320312)
(14.0625 4.0625 0.359375)
(13.2812 4.25 0.367187)
(13.2812 4.0625 0.367187)
(14.0625 3.6875 0.359375)
(13.2812 3.875 0.367187)
(13.2812 3.6875 0.367187)
(15.625 3.6875 0.34375)
(14.8438 3.875 0.351562)
(14.8438 3.6875 0.351562)
(14.0625 4.8125 0.359375)
(13.2812 5 0.367187)
(13.2812 4.8125 0.367187)
(14.0625 4.4375 0.359375)
(13.2812 4.625 0.367187)
(13.2812 4.4375 0.367187)
(15.625 4.4375 0.34375)
(14.8438 4.625 0.351562)
(14.8438 4.4375 0.351562)
(17.1875 7.0625 0.328125)
(16.4062 7.25 0.335937)
(16.4062 7.0625 0.335937)
(17.1875 6.6875 0.328125)
(16.4062 6.875 0.335937)
(16.4062 6.6875 0.335937)
(18.75 6.6875 0.3125)
(17.9688 6.875 0.320312)
(17.9688 6.6875 0.320312)
(14.0625 7.0625 0.359375)
(13.2812 7.25 0.367187)
(13.2812 7.0625 0.367187)
(14.0625 6.6875 0.359375)
(13.2812 6.875 0.367187)
(13.2812 6.6875 0.367187)
(15.625 6.6875 0.34375)
(14.8438 6.875 0.351562)
(14.8438 6.6875 0.351562)
(14.0625 7.8125 0.359375)
(13.2812 8 0.367187)
(13.2812 7.8125 0.367187)
(14.0625 7.4375 0.359375)
(13.2812 7.625 0.367187)
(13.2812 7.4375 0.367187)
(15.625 7.4375 0.34375)
(14.8438 7.625 0.351562)
(14.8438 7.4375 0.351562)
(42.1875 7.0625 0.078125)
(41.4062 7.25 0.085937)
(41.4062 7.0625 0.085937)
(42.1875 6.6875 0.078125)
(41.4062 6.875 0.085937)
(41.4062 6.6875 0.085937)
(43.75 6.6875 0.0625)
(42.9688 6.875 0.070312)
(42.9688 6.6875 0.070312)
(39.0625 7.0625 0.109375)
(38.2812 7.25 0.117187)
(38.2812 7.0625 0.117187)
(39.0625 6.6875 0.109375)
(38.2812 6.875 0.117187)
(38.2812 6.6875 0.117187)
(40.625 6.6875 0.09375)
(39.8438 6.875 0.101562)
(39.8438 6.6875 0.101562)
(39.0625 7.8125 0.109375)
(38.2812 8 0.117187)
(38.2812 7.8125 0.117187)
(39.0625 7.4375 0.109375)
(38.2812 7.625 0.117187)
(38.2812 7.4375 0.117187)
(40.625 7.4375 0.09375)
(39.8438 7.625 0.101562)
(39.8438 7.4375 0.101562)
(42.1875 7.8125 0.078125)
(41.4062 8 0.085937)
(41.4062 7.8125 0.085937)
(42.1875 7.4375 0.078125)
(41.4062 7.625 0.085937)
(41.4062 7.4375 0.085937)
(43.75 7.4375 0.0625)
(42.9688 7.625 0.070312)
(42.9688 7.4375 0.070312)
(17.1875 7.8125 0.328125)
(16.4062 8 0.335937)
(16.4062 7.8125 0.335937)
(17.1875 7.4375 0.328125)
(16.4062 7.625 0.335937)
(16.4062 7.4375 0.335937)
(18.75 7.4375 0.3125)
(17.9688 7.625 0.320312)
(17.9688 7.4375 0.320312)
(17.1875 4.8125 0.328125)
(16.4062 5 0.335937)
(16.4062 4.8125 0.335937)
(17.1875 4.4375 0.328125)
(16.4062 4.625 0.335937)
(16.4062 4.4375 0.335937)
(18.75 4.4375 0.3125)