/*--------------------------------*- C++ -*----------------------------------*\
  =========                 |
  \\      /  F ield         | OpenFOAM: The Open Source CFD Toolbox
   \\    /   O peration     | Website:  https://openfoam.org
    \\  /    A nd           | Version:  9
     \\/     M anipulation  |
\*---------------------------------------------------------------------------*/
FoamFile
{
    format      ascii;
    class       extendedFeatureEdgeMesh;
    location    "constant/extendedFeatureEdgeMesh";
    object      Obstacle.extendedFeatureEdgeMesh;
}
// * * * * * * * * * * * * * * * * * * * * * * * * * * * * * * * * * * * * * //

// points

231
(
(20.3125 6.125 1.01514)
(20.3125 6.3125 1.7334)
(20.3125 6.3125 1.01514)
(20.3125 3.875 1.7334)
(20.3125 4.0625 1.7334)
(20.3125 3.875 1.01514)
(20.3125 4.25 1.7334)
(20.3125 4.0625 1.01514)
(20.3125 3.125 1.7334)
(20.3125 2.9375 1.01514)
(20.3125 2.9375 1.7334)
(20.3125 4.4375 1.7334)
(20.3125 4.625 1.7334)
(20.3125 4.4375 1.01514)
(20.3125 4.8125 1.7334)
(20.3125 4.625 1.01514)
(20.3125 3.3125 1.01514)
(20.3125 3.5 1.7334)
(20.3125 3.5 1.01514)
(20.3125 3.6875 1.7334)
(20.3125 3.6875 1.01514)
(20.3125 3.125 1.01514)
(20.3125 2.75 1.01514)
(20.3125 3.3125 1.7334)
(20.3125 5 1.7334)
(20.3125 4.8125 1.01514)
(20.3125 5.1875 1.7334)
(20.3125 5 1.01514)
(20.3125 2.75 1.7334)
(20.3125 5.375 1.7334)
(20.3125 5.1875 1.01514)
(20.3125 2.5625 1.01514)
(20.3125 2.5625 1.7334)
(20.3125 5.5625 1.7334)
(20.3125 5.375 1.01514)
(20.3125 2.375 1.01514)
(20.3125 5.75 1.7334)
(20.3125 5.5625 1.01514)
(20.3125 5.9375 1.7334)
(20.3125 5.75 1.01514)
(20.3125 2.375 1.7334)
(20.3125 6.125 1.7334)
(20.3125 5.9375 1.01514)
(20.3125 2.1875 1.01514)
(20.3125 2.1875 1.7334)
(20.3125 4.25 1.01514)
(20.3125 2 1.01514)
(20.3125 6.5 1.7334)
(20.3125 2 1.7334)
(20.3125 6.6875 1.7334)
(20.3125 6.5 1.01514)
(20.3125 6.875 1.7334)
(20.3125 6.6875 1.01514)
(20.3125 7.0625 1.7334)
(20.3125 6.875 1.01514)
(20.3125 7.25 1.7334)
(20.3125 7.0625 1.01514)
(20.3125 7.4375 1.7334)
(20.3125 7.25 1.01514)
(20.3125 7.625 1.7334)
(20.3125 7.4375 1.01514)
(20.3125 7.8125 1.7334)
(20.3125 7.8125 1.01514)
(20.3125 8 1.7334)
(20.3125 8 1.01514)
(20.3125 7.625 1.01514)
(20.3125 8 0.296875)
(20.3125 7.8125 0.296875)
(20.3125 2 0.296875)
(20.3125 2.375 0.296875)
(20.3125 2.5625 0.296875)
(20.3125 2.1875 0.296875)
(20.3125 2.75 0.296875)
(20.3125 2.9375 0.296875)
(20.3125 3.125 0.296875)
(20.3125 3.3125 0.296875)
(20.3125 3.5 0.296875)
(20.3125 3.6875 0.296875)
(20.3125 3.875 0.296875)
(20.3125 4.0625 0.296875)
(20.3125 4.25 0.296875)
(20.3125 4.4375 0.296875)
(20.3125 4.625 0.296875)
(20.3125 4.8125 0.296875)
(20.3125 5 0.296875)
(20.3125 5.1875 0.296875)
(20.3125 5.375 0.296875)
(20.3125 5.5625 0.296875)
(20.3125 5.75 0.296875)
(20.3125 5.9375 0.296875)
(20.3125 6.125 0.296875)
(20.3125 6.3125 0.296875)
(20.3125 6.5 0.296875)
(20.3125 6.6875 0.296875)
(20.3125 6.875 0.296875)
(20.3125 7.0625 0.296875)
(20.3125 7.25 0.296875)
(20.3125 7.4375 0.296875)
(20.3125 7.625 0.296875)
(18.75 2.1875 1.03076)
(18.75 2 0.3125)
(18.75 2.1875 0.3125)
(18.75 8 0.3125)
(18.75 8 1.03076)
(18.75 7.8125 1.03076)
(18.75 7.625 1.03076)
(18.75 7.4375 1.03076)
(18.75 7.625 0.3125)
(18.75 7.25 1.03076)
(18.75 7.4375 0.3125)
(18.75 7.8125 0.3125)
(18.75 7.0625 1.03076)
(18.75 7.25 0.3125)
(18.75 6.875 1.03076)
(18.75 7.0625 0.3125)
(18.75 6.6875 1.03076)
(18.75 6.875 0.3125)
(18.75 6.5 1.03076)
(18.75 6.6875 0.3125)
(18.75 6.3125 1.03076)
(18.75 6.5 0.3125)
(18.75 6.125 1.03076)
(18.75 6.3125 0.3125)
(18.75 5.9375 1.03076)
(18.75 6.125 0.3125)
(18.75 5.75 1.03076)
(18.75 5.9375 0.3125)
(18.75 5.5625 1.03076)
(18.75 5.75 0.3125)
(18.75 5.375 1.03076)
(18.75 5.5625 0.3125)
(18.75 5.1875 1.03076)
(18.75 5.375 0.3125)
(18.75 5 1.03076)
(18.75 5.1875 0.3125)
(18.75 4.8125 1.03076)
(18.75 5 0.3125)
(18.75 4.625 1.03076)
(18.75 4.8125 0.3125)
(18.75 4.4375 1.03076)
(18.75 4.625 0.3125)
(18.75 4.25 1.03076)
(18.75 4.4375 0.3125)
(18.75 4.0625 1.03076)
(18.75 4.25 0.3125)
(18.75 3.875 1.03076)
(18.75 4.0625 0.3125)
(18.75 3.6875 1.03076)
(18.75 3.875 0.3125)
(18.75 3.5 1.03076)
(18.75 3.6875 0.3125)
(18.75 3.3125 1.03076)
(18.75 3.5 0.3125)
(18.75 3.125 1.03076)
(18.75 3.3125 0.3125)
(18.75 2.9375 1.03076)
(18.75 3.125 0.3125)
(18.75 2.75 1.03076)
(18.75 2.9375 0.3125)
(18.75 2.5625 1.03076)
(18.75 2.75 0.3125)
(18.75 2.375 1.03076)
(18.75 2.5625 0.3125)
(18.75 2 1.03076)
(18.75 2.375 0.3125)
(18.75 3.3125 1.74902)
(18.75 8 1.74902)
(18.75 7.8125 1.74902)
(18.75 7.625 1.74902)
(18.75 7.4375 1.74902)
(18.75 7.25 1.74902)
(18.75 7.0625 1.74902)
(18.75 6.875 1.74902)
(18.75 6.6875 1.74902)
(18.75 6.5 1.74902)
(18.75 6.3125 1.74902)
(18.75 6.125 1.74902)
(18.75 5.9375 1.74902)
(18.75 5.75 1.74902)
(18.75 5.5625 1.74902)
(18.75 5.375 1.74902)
(18.75 5.1875 1.74902)
(18.75 5 1.74902)
(18.75 4.8125 1.74902)
(18.75 4.625 1.74902)
(18.75 4.4375 1.74902)
(18.75 4.25 1.74902)
(18.75 4.0625 1.74902)
(18.75 3.875 1.74902)
(18.75 3.6875 1.74902)
(18.75 3.5 1.74902)
(18.75 3.125 1.74902)
(18.75 2.9375 1.74902)
(18.75 2.75 1.74902)
(18.75 2.5625 1.74902)
(18.75 2.375 1.74902)
(18.75 2.1875 1.74902)
(18.75 2 1.74902)
(19.5312 4.0625 1.74121)
(19.5312 3.875 1.74121)
(19.5312 4.625 1.74121)
(19.5312 4.4375 1.74121)
(19.5312 6.125 1.74121)
(19.5312 6.3125 1.74121)
(19.5312 4.25 1.74121)
(19.5312 5.9375 1.74121)
(19.5312 3.6875 1.74121)
(19.5312 3.5 1.74121)
(19.5312 5.75 1.74121)
(19.5312 5.5625 1.74121)
(19.5312 3.3125 1.74121)
(19.5312 4.8125 1.74121)
(19.5312 3.125 1.74121)
(19.5312 5.375 1.74121)
(19.5312 5 1.74121)
(19.5312 2.9375 1.74121)
(19.5312 5.1875 1.74121)
(19.5312 6.5 1.74121)
(19.5312 2.75 1.74121)
(19.5312 6.6875 1.74121)
(19.5312 2.5625 1.74121)
(19.5312 2.375 1.74121)
(19.5312 6.875 1.74121)
(19.5312 7.0625 1.74121)
(19.5312 7.25 1.74121)
(19.5312 7.4375 1.74121)
(19.5312 7.625 1.74121)
(19.5312 7.8125 1.74121)
(19.5312 8 1.74121)
(19.5312 2.1875 1.74121)
(19.5312 2 1.74121)
)

// edges

614
(
(3 4)
(4 6)
(10 8)
(11 12)
(12 14)
(19 3)
(23 17)
(14 24)
(17 19)
(24 26)
(28 10)
(26 29)
(8 23)
(32 28)
(29 33)
(33 36)
(36 38)
(40 32)
(38 41)
(44 40)
(41 1)
(1 47)
(48 44)
(6 11)
(47 49)
(49 51)
(51 53)
(53 55)
(55 57)
(57 59)
(59 61)
(61 63)
(166 167)
(167 168)
(168 169)
(170 171)
(171 172)
(169 170)
(172 173)
(173 174)
(175 176)
(176 177)
(174 175)
(177 178)
(178 179)
(180 181)
(181 182)
(179 180)
(182 183)
(183 184)
(184 185)
(185 186)
(186 187)
(187 188)
(188 189)
(189 190)
(190 165)
(165 191)
(191 192)
(193 194)
(194 195)
(192 193)
(195 196)
(196 197)
(198 3)
(200 12)
(11 200)
(201 11)
(6 201)
(204 6)
(4 204)
(198 4)
(205 38)
(36 205)
(33 208)
(208 36)
(38 202)
(29 209)
(12 211)
(211 14)
(214 24)
(14 214)
(203 1)
(216 26)
(24 216)
(26 213)
(219 47)
(219 49)
(222 223)
(49 222)
(219 222)
(224 55)
(53 224)
(223 53)
(224 225)
(225 57)
(223 224)
(226 59)
(57 226)
(61 228)
(227 61)
(230 229)
(200 211)
(221 220)
(220 218)
(229 221)
(201 200)
(215 212)
(212 210)
(218 215)
(204 201)
(210 207)
(198 204)
(227 166)
(168 227)
(225 168)
(223 170)
(219 173)
(173 222)
(171 223)
(222 171)
(169 225)
(175 203)
(205 178)
(176 205)
(213 181)
(179 213)
(209 179)
(178 209)
(183 211)
(182 211)
(214 182)
(181 214)
(201 186)
(184 201)
(198 187)
(190 210)
(189 207)
(210 191)
(199 189)
(215 193)
(191 215)
(221 195)
(194 221)
(220 194)
(193 220)
(196 230)
(0 1)
(1 2)
(2 0)
(5 3)
(4 5)
(7 4)
(6 7)
(8 9)
(9 10)
(13 11)
(12 13)
(15 12)
(14 15)
(16 17)
(17 18)
(18 16)
(20 19)
(3 20)
(8 21)
(21 9)
(22 10)
(9 22)
(16 23)
(24 25)
(25 14)
(19 18)
(27 24)
(26 27)
(22 28)
(20 18)
(29 30)
(30 26)
(23 21)
(31 28)
(22 31)
(31 32)
(34 29)
(33 34)
(5 20)
(35 32)
(31 35)
(37 33)
(36 37)
(38 39)
(39 36)
(35 40)
(7 5)
(42 38)
(41 42)
(43 40)
(35 43)
(43 44)
(0 41)
(6 45)
(45 7)
(46 44)
(43 46)
(47 2)
(11 45)
(49 50)
(50 47)
(13 45)
(52 49)
(51 52)
(15 13)
(16 21)
(53 54)
(54 51)
(55 56)
(56 53)
(27 25)
(25 15)
(58 55)
(57 58)
(59 60)
(60 57)
(34 30)
(30 27)
(61 62)
(62 59)
(64 61)
(37 34)
(64 62)
(65 59)
(62 65)
(65 60)
(42 39)
(39 37)
(58 56)
(56 54)
(60 58)
(0 42)
(52 50)
(50 2)
(54 52)
(67 62)
(62 66)
(43 68)
(69 35)
(31 69)
(70 31)
(22 70)
(71 35)
(43 71)
(72 22)
(9 72)
(73 9)
(21 73)
(74 21)
(16 74)
(75 16)
(18 75)
(76 18)
(20 76)
(77 20)
(5 77)
(78 5)
(7 78)
(79 7)
(45 79)
(80 45)
(13 80)
(81 13)
(15 81)
(82 15)
(25 82)
(83 25)
(27 83)
(84 27)
(30 84)
(85 30)
(34 85)
(86 34)
(37 86)
(87 37)
(39 87)
(88 39)
(42 88)
(89 42)
(0 89)
(90 0)
(2 90)
(91 2)
(50 91)
(92 50)
(52 92)
(93 52)
(54 93)
(94 54)
(56 94)
(95 56)
(58 95)
(96 58)
(60 96)
(97 60)
(65 97)
(67 65)
(98 65)
(101 99)
(99 100)
(104 102)
(103 104)
(107 105)
(106 107)
(105 106)
(109 106)
(108 109)
(106 108)
(110 105)
(104 110)
(104 105)
(112 108)
(111 112)
(108 111)
(114 111)
(113 114)
(111 113)
(116 113)
(115 116)
(113 115)
(118 115)
(117 118)
(115 117)
(120 117)
(119 120)
(117 119)
(122 119)
(121 122)
(119 121)
(124 121)
(123 124)
(121 123)
(126 123)
(125 126)
(123 125)
(128 125)
(127 128)
(125 127)
(130 127)
(129 130)
(127 129)
(132 129)
(131 132)
(129 131)
(134 131)
(133 134)
(131 133)
(136 133)
(135 136)
(133 135)
(138 135)
(137 138)
(135 137)
(140 137)
(139 140)
(137 139)
(142 139)
(141 142)
(139 141)
(144 141)
(143 144)
(141 143)
(146 143)
(145 146)
(143 145)
(148 145)
(147 148)
(145 147)
(150 147)
(149 150)
(147 149)
(152 149)
(151 152)
(149 151)
(154 151)
(153 154)
(151 153)
(156 153)
(155 156)
(153 155)
(158 155)
(157 158)
(155 157)
(160 157)
(159 160)
(157 159)
(162 159)
(161 162)
(159 161)
(101 161)
(161 99)
(99 163)
(164 161)
(165 153)
(151 165)
(166 104)
(167 104)
(168 105)
(105 167)
(169 105)
(108 170)
(171 108)
(111 171)
(172 111)
(106 169)
(170 106)
(173 113)
(113 172)
(115 173)
(174 115)
(176 121)
(121 175)
(177 121)
(117 174)
(175 117)
(123 177)
(178 123)
(125 178)
(179 125)
(181 129)
(129 180)
(131 181)
(182 131)
(127 179)
(180 127)
(119 175)
(133 182)
(183 133)
(135 183)
(184 135)
(137 184)
(185 137)
(139 185)
(186 139)
(141 186)
(187 141)
(143 187)
(188 143)
(189 145)
(145 188)
(147 189)
(190 147)
(149 190)
(165 149)
(191 153)
(192 153)
(194 157)
(157 193)
(195 159)
(159 194)
(155 192)
(193 155)
(196 161)
(161 195)
(99 196)
(197 99)
(3 199)
(199 198)
(41 202)
(203 41)
(202 203)
(17 206)
(206 19)
(207 17)
(23 207)
(205 202)
(33 209)
(209 208)
(8 210)
(210 23)
(10 212)
(212 8)
(29 213)
(213 209)
(215 10)
(28 215)
(217 1)
(203 217)
(217 47)
(32 218)
(218 28)
(217 219)
(216 213)
(40 220)
(220 32)
(221 40)
(44 221)
(214 216)
(19 199)
(208 205)
(51 222)
(223 51)
(225 55)
(227 59)
(226 227)
(225 226)
(227 228)
(48 229)
(229 44)
(211 214)
(207 206)
(206 199)
(198 186)
(186 204)
(226 168)
(224 170)
(170 225)
(217 173)
(227 167)
(172 222)
(203 176)
(174 203)
(217 174)
(177 205)
(180 213)
(211 184)
(185 201)
(187 199)
(199 188)
(210 165)
(207 190)
(202 176)
(200 184)
(208 178)
(216 181)
(192 215)
(221 196)
(229 196)
(218 193)
(212 191)
(206 189)
(46 48)
(63 64)
(66 67)
(68 46)
(69 71)
(71 68)
(70 69)
(72 70)
(73 72)
(74 73)
(75 74)
(76 75)
(77 76)
(78 77)
(79 78)
(80 79)
(81 80)
(82 81)
(83 82)
(84 83)
(85 84)
(86 85)
(87 86)
(88 87)
(89 88)
(90 89)
(91 90)
(92 91)
(93 92)
(94 93)
(95 94)
(96 95)
(97 96)
(64 66)
(67 98)
(98 97)
(100 101)
(102 103)
(107 110)
(110 102)
(109 107)
(112 109)
(114 112)
(116 114)
(118 116)
(120 118)
(122 120)
(124 122)
(126 124)
(128 126)
(130 128)
(132 130)
(134 132)
(136 134)
(138 136)
(140 138)
(142 140)
(144 142)
(146 144)
(148 146)
(150 148)
(152 150)
(154 152)
(156 154)
(158 156)
(160 158)
(162 160)
(163 100)
(101 164)
(164 162)
(103 166)
(197 163)
(228 63)
(48 230)
(166 228)
(230 197)
)

// concaveStart mixedStart nonFeatureStart
0 0 231
// internalStart flatStart openStart multipleStart
0 64 538 614
// normals

384
(
(-1 0 0)
(-1 0 0)
(-1 0 0)
(-1 0 0)
(-1 0 -0)
(-1 0 0)
(-1 0 0)
(-1 0 -0)
(-1 0 0)
(-1 0 -0)
(-1 0 0)
(-1 0 -0)
(-1 0 0)
(-1 0 -0)
(-1 0 0)
(-1 0 -0)
(-1 0 0)
(-1 0 -0)
(-1 0 0)
(-1 0 -0)
(-1 0 0)
(-1 0 -0)
(-1 0 0)
(-1 0 -0)
(-1 0 0)
(-1 0 -0)
(-1 0 0)
(-1 0 -0)
(-1 0 0)
(-1 0 -0)
(-1 0 0)
(-1 0 -0)
(-1 0 0)
(-1 0 0)
(-1 0 0)
(-1 0 0)
(1 0 0)
(1 0 -0)
(1 0 0)
(1 0 0)
(1 0 0)
(1 0 0)
(1 0 0)
(1 0 0)
(1 0 0)
(1 0 0)
(1 0 0)
(1 0 0)
(1 0 0)
(1 0 0)
(1 0 0)
(1 0 0)
(1 0 0)
(1 0 0)
(1 0 0)
(1 0 0)
(1 0 0)
(1 0 0)
(1 0 0)
(1 0 0)
(1 0 0)
(1 0 0)
(1 0 0)
(1 0 0)
(1 0 0)
(1 0 0)
(1 0 0)
(1 0 0)
(1 0 0)
(1 0 0)
(1 0 -0)
(1 0 0)
(-0.0099963 -0 -0.99995)
(-0.00999889 0 -0.99995)
(-0.0099963 0 -0.99995)
(-0.0100001 0 -0.99995)
(-0.00999889 -5.08601e-06 -0.99995)
(-0.00999767 -0 -0.99995)
(-0.00999767 -0 -0.99995)
(-0.00999767 -0 -0.99995)
(-0.00999767 0 -0.99995)
(-0.00999767 -0 -0.99995)
(-0.00999767 -0 -0.99995)
(-0.00999767 -0 -0.99995)
(-0.00999767 -0 -0.99995)
(-0.00999767 0 -0.99995)
(-0.00999767 0 -0.99995)
(-0.00999767 0 -0.99995)
(-0.00999767 0 -0.99995)
(-0.00999767 -0 -0.99995)
(-0.00999767 0 -0.99995)
(-0.00999767 0 -0.99995)
(-0.00999767 -0 -0.99995)
(-0.00999767 -0 -0.99995)
(-0.00999767 -0 -0.99995)
(-0.00999767 -0 -0.99995)
(-0.00999767 -0 -0.99995)
(-0.00999767 0 -0.99995)
(-0.00999767 0 -0.99995)
(-0.00999767 -0 -0.99995)
(-0.00999767 -0 -0.99995)
(-0.00999767 0 -0.99995)
(-0.00999767 -5.72176e-06 -0.99995)
(-0.0099963 0 -0.99995)
(-0.0099963 0 -0.99995)
(-0.0099963 0 -0.99995)
(-0.00999767 -0 -0.99995)
(-0.0099963 0 -0.99995)
(-0.00999767 -0 -0.99995)
(-0.0099963 0 -0.99995)
(-0.0099963 -0 -0.99995)
(-0.0099963 -0 -0.99995)
(-0.0099963 -0 -0.99995)
(-0.00999767 -0 -0.99995)
(-0.0099963 0 -0.99995)
(-0.0099963 0 -0.99995)
(-0.00999767 -0 -0.99995)
(-0.0099963 -0 -0.99995)
(-0.0099963 0 -0.99995)
(-0.0099963 -0 -0.99995)
(-0.0099963 -0 -0.99995)
(-0.0100001 -0 -0.99995)
(-0.00999874 0 -0.99995)
(-0.00999889 0 -0.99995)
(-0.00999889 0 -0.99995)
(-0.00999889 0 -0.99995)
(-0.00999889 -0 -0.99995)
(-0.00999889 0 -0.99995)
(-0.0100001 -0 -0.99995)
(-0.00999874 0 -0.99995)
(-0.00999889 0 -0.99995)
(-0.00999889 -0 -0.99995)
(-0.00999889 0 -0.99995)
(-0.00999889 -0 -0.99995)
(-0.00999889 0 -0.99995)
(-0.00999889 -0 -0.99995)
(-0.00999874 0 -0.99995)
(-0.00999889 0 -0.99995)
(-0.00999889 0 -0.99995)
(-0.00999874 -0 -0.99995)
(-0.0099963 -0 -0.99995)
(-0.0099963 -0 -0.99995)
(-0.0099963 0 -0.99995)
(-0.0099963 -0 -0.99995)
(-0.0099963 0 -0.99995)
(-0.00999767 -0 -0.99995)
(-0.00999767 -5.72176e-06 -0.99995)
(-0.00999767 0 -0.99995)
(-0.00999767 0 -0.99995)
(-0.0099963 -5.72176e-06 -0.99995)
(-0.0099963 -5.08601e-06 -0.99995)
(-0.0099963 0 -0.99995)
(-0.00999752 0 -0.99995)
(-0.00999752 0 -0.99995)
(-0.00999752 0 -0.99995)
(-0.00999752 0 -0.99995)
(-0.00999752 0 -0.99995)
(-0.00999752 0 -0.99995)
(-0.00999752 0 -0.99995)
(-0.00999752 0 -0.99995)
(-0.00999752 0 -0.99995)
(-0.00999752 -0 -0.99995)
(-0.00999752 -5.08601e-06 -0.99995)
(-0.00999752 0 -0.99995)
(-0.00999752 0 -0.99995)
(-0.00999752 0 -0.99995)
(-0.00999752 -0 -0.99995)
(-0.00999874 0 -0.99995)
(-0.00999874 0 -0.99995)
(-0.00999874 0 -0.99995)
(-0.00999874 -5.08601e-06 -0.99995)
(-0.00999889 0 -0.99995)
(-0.00999889 -5.72176e-06 -0.99995)
(-0.00999752 -0 -0.99995)
(-0.00999889 -0 -0.99995)
(-0.00999752 0 -0.99995)
(-0.00999752 -0 -0.99995)
(-0.00999889 0 -0.99995)
(-0.00999889 0 -0.99995)
(-0.00999889 0 -0.99995)
(-0.00999889 -5.08601e-06 -0.99995)
(-0.00999889 0 -0.99995)
(-1 0 0)
(-1 0 0)
(-1 0 0)
(-1 0 0)
(-1 0 0)
(-1 0 0)
(-1 0 0)
(-1 0 0)
(-1 0 0)
(-1 -0 0)
(-1 0 0)
(-1 0 -0)
(-0.00999889 -0 -0.99995)
(-1 0 0)
(-1 0 0)
(-1 0 -0)
(-1 0 0)
(-1 0 0)
(-1 0 0)
(-1 -0 0)
(-1 0 0)
(-1 0 0)
(-1 0 0)
(-1 0 0)
(-0.00999889 -0 -0.99995)
(-1 0 0)
(-1 0 0)
(-1 -0 0)
(-1 0 0)
(-1 0 0)
(-0.00999889 -0 -0.99995)
(-1 0 0)
(-1 0 -0)
(-0.00999889 -0 -0.99995)
(-1 0 0)
(-1 0 0)
(-1 0 -0)
(-0.00999889 -0 -0.99995)
(-1 0 0)
(-1 0 0)
(-1 0 -0)
(-0.00999889 -0 -0.99995)
(-1 -0 0)
(-1 0 0)
(-1 0 -0)
(-0.00999889 -0 -0.99995)
(-1 0 0)
(-1 0 0)
(-1 0 0)
(-1 -0 0)
(-1 0 0)
(-1 0 0)
(-1 0 0)
(-1 0 0)
(-1 0 0)
(-1 0 -0)
(-0.00999889 -0 -0.99995)
(-1 0 0)
(-1 0 0)
(-1 0 -0)
(-1 -0 0)
(-1 0 0)
(-1 0 -0)
(-0.00999889 -0 -0.99995)
(-1 0 0)
(-1 0 0)
(-1 0 0)
(-0.00999767 0 -0.99995)
(-0.00999889 -0 -0.99995)
(-1 0 0)
(-1 0 0)
(-1 0 0)
(-1 0 0)
(-1 0 0)
(-1 0 0)
(-1 0 0)
(-1 0 0)
(-1 0 0)
(-1 0 0)
(-1 0 0)
(-1 0 0)
(-1 0 0)
(-1 0 0)
(-1 0 0)
(-1 0 0)
(-1 0 0)
(-1 0 0)
(-1 0 0)
(-1 0 0)
(-1 0 0)
(-1 0 0)
(-1 0 0)
(-1 0 0)
(-1 0 0)
(-1 0 0)
(-1 0 0)
(-1 0 0)
(-1 0 0)
(-1 0 0)
(-1 0 0)
(-1 0 0)
(-1 0 0)
(-1 0 0)
(1 0 0)
(1 0 0)
(1 0 0)
(1 0 0)
(1 0 0)
(1 0 0)
(1 0 0)
(1 0 0)
(1 0 0)
(1 0 0)
(1 0 0)
(1 0 0)
(1 0 0)
(1 0 0)
(1 0 0)
(1 0 0)
(1 0 0)
(1 0 0)
(1 0 0)
(1 0 0)
(1 0 0)
(1 0 0)
(1 0 0)
(1 0 0)
(1 0 0)
(1 0 0)
(1 0 0)
(1 0 0)
(1 0 0)
(1 0 0)
(1 0 0)
(1 0 0)
(1 0 0)
(1 0 0)
(1 0 0)
(1 0 0)
(1 0 0)
(1 0 0)
(1 0 0)
(1 0 0)
(1 0 0)
(1 0 0)
(1 0 0)
(1 0 0)
(1 0 0)
(1 0 0)
(1 0 0)
(1 0 0)
(1 0 0)
(1 0 0)
(1 0 -0)
(1 0 0)
(1 0 0)
(1 0 0)
(1 0 0)
(1 0 0)
(1 0 0)
(1 0 0)
(1 0 0)
(1 0 0)
(1 0 0)
(1 0 0)
(1 0 0)
(1 0 0)
(1 0 0)
(1 0 0)
(1 0 -0)
(1 0 0)
(1 0 0)
(-0.0099963 0 -0.99995)
(1 0 0)
(1 0 0)
(1 0 0)
(1 0 0)
(1 0 0)
(1 0 0)
(1 0 0)
(1 0 0)
(1 0 0)
(1 0 0)
(1 0 0)
(1 0 0)
(1 0 0)
(1 0 0)
(-0.00999752 0 -0.99995)
(1 0 0)
(1 0 0)
(1 0 0)
(1 0 0)
(1 0 0)
(1 0 0)
(1 0 -0)
(1 0 0)
(1 0 0)
(-0.00999767 0 -0.99995)
(-0.00999752 0 -0.99995)
(-0.00999889 0 -0.99995)
(-0.00999889 0 -0.99995)
(-0.0099963 0 -0.99995)
)

// normal volume types

384
(
0
0
0
0
0
0
0
0
0
0
0
0
0
0
0
0
0
0
0
0
0
0
0
0
0
0
0
0
0
0
0
0
0
0
0
0
0
0
0
0
0
0
0
0
0
0
0
0
0
0
0
0
0
0
0
0
0
0
0
0
0
0
0
0
0
0
0
0
0
0
0
0
0
0
0
0
0
0
0
0
0
0
0
0
0
0
0
0
0
0
0
0
0
0
0
0
0
0
0
0
0
0
0
0
0
0
0
0
0
0
0
0
0
0
0
0
0
0
0
0
0
0
0
0
0
0
0
0
0
0
0
0
0
0
0
0
0
0
0
0
0
0
0
0
0
0
0
0
0
0
0
0
0
0
0
0
0
0
0
0
0
0
0
0
0
0
0
0
0
0
0
0
0
0
0
0
0
0
0
0
0
0
0
0
0
0
0
0
0
0
0
0
0
0
0
0
0
0
0
0
0
0
0
0
0
0
0
0
0
0
0
0
0
0
0
0
0
0
0
0
0
0
0
0
0
0
0
0
0
0
0
0
0
0
0
0
0
0
0
0
0
0
0
0
0
0
0
0
0
0
0
0
0
0
0
0
0
0
0
0
0
0
0
0
0
0
0
0
0
0
0
0
0
0
0
0
0
0
0
0
0
0
0
0
0
0
0
0
0
0
0
0
0
0
0
0
0
0
0
0
0
0
0
0
0
0
0
0
0
0
0
0
0
0
0
0
0
0
0
0
0
0
0
0
0
0
0
0
0
0
0
0
0
0
0
0
0
0
0
0
0
0
0
0
0
0
0
0
0
0
0
0
0
0
0
0
0
0
0
0
0
0
0
0
0
0
0
0
0
0
0
0
0
0
0
0
0
0
0
0
0
0
0
0
)

// normalDirections

614
(
2(1 -1)
2(1 -1)
2(1 -1)
2(1 -1)
2(1 -1)
2(1 -1)
2(1 -1)
2(1 -1)
2(1 -1)
2(1 -1)
2(1 -1)
2(1 -1)
2(1 -1)
2(1 -1)
2(1 -1)
2(1 -1)
2(1 -1)
2(1 -1)
2(1 -1)
2(1 -1)
2(1 -1)
2(1 -1)
2(1 -1)
2(1 -1)
2(1 -1)
2(1 -1)
2(1 -1)
2(1 -1)
2(1 -1)
2(1 -1)
2(1 -1)
2(1 -1)
2(1 -1)
2(1 -1)
2(1 -1)
2(1 -1)
2(1 -1)
2(1 -1)
2(1 -1)
2(1 -1)
2(1 -1)
2(1 -1)
2(1 -1)
2(1 -1)
2(1 -1)
2(1 -1)
2(1 -1)
2(1 -1)
2(1 -1)
2(1 -1)
2(1 -1)
2(1 -1)
2(1 -1)
2(1 -1)
2(1 -1)
2(1 -1)
2(1 -1)
2(1 -1)
2(1 -1)
2(1 -1)
2(1 -1)
2(1 -1)
2(1 -1)
2(1 -1)
2(1 -1)
2(1 -1)
2(1 -1)
2(1 -1)
2(1 -1)
2(1 -1)
2(1 -1)
2(1 -1)
2(1 -1)
2(1 -1)
2(1 -1)
2(1 -1)
2(1 -1)
2(1 -1)
2(1 -1)
2(1 -1)
2(1 -1)
2(1 -1)
2(1 -1)
2(1 -1)
2(1 -1)
2(1 -1)
2(1 -1)
2(1 -1)
2(1 -1)
2(1 -1)
2(1 -1)
2(1 -1)
2(1 -1)
2(1 -1)
2(1 -1)
2(1 -1)
2(1 -1)
2(1 -1)
2(1 -1)
2(1 -1)
2(1 -1)
2(1 -1)
2(1 -1)
2(1 -1)
2(1 -1)
2(1 -1)
2(1 -1)
2(1 -1)
2(1 -1)
2(1 -1)
2(1 -1)
2(1 -1)
2(1 -1)
2(1 -1)
2(1 -1)
2(1 -1)
2(1 -1)
2(1 -1)
2(1 -1)
2(1 -1)
2(1 -1)
2(1 -1)
2(1 -1)
2(1 -1)
2(1 -1)
2(1 -1)
2(1 -1)
2(1 -1)
2(1 -1)
2(1 -1)
2(1 -1)
2(1 -1)
2(1 -1)
2(1 -1)
2(1 -1)
2(1 -1)
2(1 -1)
2(1 -1)
2(1 -1)
2(1 -1)
2(1 -1)
2(1 -1)
2(1 -1)
2(1 -1)
2(1 -1)
2(1 -1)
2(1 -1)
2(1 -1)
2(1 -1)
2(1 -1)
2(1 -1)
2(1 -1)
2(1 -1)
2(1 -1)
2(1 -1)
2(1 -1)
2(1 -1)
2(1 -1)
2(1 -1)
2(1 -1)
2(1 -1)
2(1 -1)
2(1 -1)
2(1 -1)
2(1 -1)
2(1 -1)
2(1 -1)
2(1 -1)
2(1 -1)
2(1 -1)
2(1 -1)
2(1 -1)
2(1 -1)
2(1 -1)
2(1 -1)
2(1 -1)
2(1 -1)
2(1 -1)
2(1 -1)
2(1 -1)
2(1 -1)
2(1 -1)
2(1 -1)
2(1 -1)
2(1 -1)
2(1 -1)
2(1 -1)
2(1 -1)
2(1 -1)
2(1 -1)
2(1 -1)
2(1 -1)
2(1 -1)
2(1 -1)
2(1 -1)
2(1 -1)
2(1 -1)
2(1 -1)
2(1 -1)
2(1 -1)
2(1 -1)
2(1 -1)
2(1 -1)
2(1 -1)
2(1 -1)
2(1 -1)
2(1 -1)
2(1 -1)
2(1 -1)
2(1 -1)
2(1 -1)
2(1 -1)
2(1 -1)
2(1 -1)
2(1 -1)
2(1 -1)
2(1 -1)
2(1 -1)
2(1 -1)
2(1 -1)
2(1 -1)
2(1 -1)
2(1 -1)
2(1 -1)
2(1 -1)
2(1 -1)
2(1 -1)
2(1 -1)
2(1 -1)
2(1 -1)
2(1 -1)
2(1 -1)
2(1 -1)
2(1 -1)
2(1 -1)
2(1 -1)
2(1 -1)
2(1 -1)
2(1 -1)
2(1 -1)
2(1 -1)
2(1 -1)
2(1 -1)
2(1 -1)
2(1 -1)
2(1 -1)
2(1 -1)
2(1 -1)
2(1 -1)
2(1 -1)
2(1 -1)
2(1 -1)
2(1 -1)
2(1 -1)
2(1 -1)
2(1 -1)
2(1 -1)
2(1 -1)
2(1 -1)
2(1 -1)
2(1 -1)
2(1 -1)
2(1 -1)
2(1 -1)
2(1 -1)
2(1 -1)
2(1 -1)
2(1 -1)
2(1 -1)
2(1 -1)
2(1 -1)
2(1 -1)
2(1 -1)
2(1 -1)
2(1 -1)
2(1 -1)
2(1 -1)
2(1 -1)
2(1 -1)
2(1 -1)
2(1 -1)
2(1 -1)
2(1 -1)
2(1 -1)
2(1 -1)
2(1 -1)
2(1 -1)
2(1 -1)
2(1 -1)
2(1 -1)
2(1 -1)
2(1 -1)
2(1 -1)
2(1 -1)
2(1 -1)
2(1 -1)
2(1 -1)
2(1 -1)
2(1 -1)
2(1 -1)
2(1 -1)
2(1 -1)
2(1 -1)
2(1 -1)
2(1 -1)
2(1 -1)
2(1 -1)
2(1 -1)
2(1 -1)
2(1 -1)
2(1 -1)
2(1 -1)
2(1 -1)
2(1 -1)
2(1 -1)
2(1 -1)
2(1 -1)
2(1 -1)
2(1 -1)
2(1 -1)
2(1 -1)
2(1 -1)
2(1 -1)
2(1 -1)
2(1 -1)
2(1 -1)
2(1 -1)
2(1 -1)
2(1 -1)
2(1 -1)
2(1 -1)
2(1 -1)
2(1 -1)
2(1 -1)
2(1 -1)
2(1 -1)
2(1 -1)
2(1 -1)
2(1 -1)
2(1 -1)
2(1 -1)
2(1 -1)
2(1 -1)
2(1 -1)
2(1 -1)
2(1 -1)
2(1 -1)
2(1 -1)
2(1 -1)
2(1 -1)
2(1 -1)
2(1 -1)
2(1 -1)
2(1 -1)
2(1 -1)
2(1 -1)
2(1 -1)
2(1 -1)
2(1 -1)
2(1 -1)
2(1 -1)
2(1 -1)
2(1 -1)
2(1 -1)
2(1 -1)
2(1 -1)
2(1 -1)
2(1 -1)
2(1 -1)
2(1 -1)
2(1 -1)
2(1 -1)
2(1 -1)
2(1 -1)
2(1 -1)
2(1 -1)
2(1 -1)
2(1 -1)
2(1 -1)
2(1 -1)
2(1 -1)
2(1 -1)
2(1 -1)
2(1 -1)
2(1 -1)
2(1 -1)
2(1 -1)
2(1 -1)
2(1 -1)
2(1 -1)
2(1 -1)
2(1 -1)
2(1 -1)
2(1 -1)
2(1 -1)
2(1 -1)
2(1 -1)
2(1 -1)
2(1 -1)
2(1 -1)
2(1 -1)
2(1 -1)
2(1 -1)
2(1 -1)
2(1 -1)
2(1 -1)
2(1 -1)
2(1 -1)
2(1 -1)
2(1 -1)
2(1 -1)
2(1 -1)
2(1 -1)
2(1 -1)
2(1 -1)
2(1 -1)
2(1 -1)
2(1 -1)
2(1 -1)
2(1 -1)
2(1 -1)
2(1 -1)
2(1 -1)
2(1 -1)
2(1 -1)
2(1 -1)
2(1 -1)
2(1 -1)
2(1 -1)
2(1 -1)
2(1 -1)
2(1 -1)
2(1 -1)
2(1 -1)
2(1 -1)
2(1 -1)
2(1 -1)
2(1 -1)
2(1 -1)
2(1 -1)
2(1 -1)
2(1 -1)
2(1 -1)
2(1 -1)
2(1 -1)
2(1 -1)
2(1 -1)
2(1 -1)
2(1 -1)
2(1 -1)
2(1 -1)
2(1 -1)
2(1 -1)
2(1 -1)
2(1 -1)
2(1 -1)
2(1 -1)
2(1 -1)
2(1 -1)
2(1 -1)
2(1 -1)
2(1 -1)
2(1 -1)
2(1 -1)
2(1 -1)
2(1 -1)
2(1 -1)
2(1 -1)
2(1 -1)
2(1 -1)
2(1 -1)
2(1 -1)
2(1 -1)
2(1 -1)
2(1 -1)
2(1 -1)
2(1 -1)
2(1 -1)
2(1 -1)
2(1 -1)
2(1 -1)
2(1 -1)
2(1 -1)
2(1 -1)
2(1 -1)
2(1 -1)
2(1 -1)
2(1 -1)
2(1 -1)
2(1 -1)
2(1 -1)
2(1 -1)
2(1 -1)
2(1 -1)
2(1 -1)
2(1 -1)
2(1 -1)
2(1 -1)
2(1 -1)
2(1 -1)
2(1 -1)
2(1 -1)
2(1 -1)
2(1 -1)
2(1 -1)
2(1 -1)
2(1 -1)
2(1 -1)
2(1 -1)
2(1 -1)
2(1 -1)
2(1 -1)
2(1 -1)
2(1 -1)
2(1 -1)
2(1 -1)
2(1 -1)
2(1 -1)
2(1 -1)
2(1 -1)
2(1 -1)
2(1 -1)
2(1 -1)
2(1 -1)
2(1 -1)
2(1 -1)
2(1 -1)
2(1 -1)
2(1 -1)
2(1 -1)
2(1 -1)
2(1 -1)
2(1 -1)
2(1 -1)
2(1 -1)
2(1 -1)
2(1 -1)
2(1 -1)
1(1)
1(1)
1(1)
1(1)
1(1)
1(1)
1(1)
1(1)
1(1)
1(1)
1(1)
1(1)
1(1)
1(1)
1(1)
1(1)
1(1)
1(1)
1(1)
1(1)
1(1)
1(1)
1(1)
1(1)
1(1)
1(1)
1(1)
1(1)
1(1)
1(1)
1(1)
1(1)
1(1)
1(1)
1(1)
1(1)
1(1)
1(1)
1(1)
1(1)
1(1)
1(1)
1(1)
1(1)
1(1)
1(1)
1(1)
1(1)
1(1)
1(1)
1(1)
1(1)
1(1)
1(1)
1(1)
1(1)
1(1)
1(1)
1(1)
1(1)
1(1)
1(1)
1(1)
1(1)
1(1)
1(1)
1(1)
1(1)
1(1)
1(1)
1(1)
1(1)
1(1)
1(1)
1(1)
1(1)
)

// edgeNormals

614
(
2(186 77)
2(189 83)
2(191 194)
2(195 78)
2(198 93)
2(204 206)
2(201 212)
2(213 95)
2(202 215)
2(216 99)
2(209 219)
2(221 101)
2(207 223)
2(224 227)
2(228 91)
2(233 88)
2(235 85)
2(231 238)
2(240 90)
2(242 245)
2(183 97)
2(184 249)
2(0 250)
2(246 81)
2(251 103)
2(254 107)
2(258 112)
2(260 109)
2(264 114)
2(266 117)
2(270 120)
2(1 72)
2(346 140)
2(347 142)
2(348 144)
2(349 145)
2(350 148)
2(351 149)
2(352 147)
2(353 354)
2(355 150)
2(356 154)
2(357 151)
2(358 152)
2(359 160)
2(360 156)
2(361 165)
2(362 158)
2(363 163)
2(364 162)
2(365 168)
2(366 167)
2(367 169)
2(368 369)
2(370 175)
2(371 172)
2(372 171)
2(345 174)
2(373 178)
2(374 181)
2(375 179)
2(376 177)
2(377 180)
2(378 75)
2(76 77)
2(78 79)
2(78 80)
2(81 80)
2(81 82)
2(83 82)
2(83 84)
2(77 84)
2(85 86)
2(85 87)
2(88 89)
2(88 87)
2(90 86)
2(91 92)
2(93 79)
2(93 94)
2(95 96)
2(95 94)
2(97 98)
2(99 100)
2(99 96)
2(101 100)
2(102 103)
2(103 104)
2(105 106)
2(107 104)
2(104 108)
2(109 110)
2(109 111)
2(112 111)
2(110 113)
2(114 115)
2(111 116)
2(117 118)
2(117 115)
2(72 119)
2(120 119)
2(73 121)
2(79 122)
2(123 124)
2(125 126)
2(127 128)
2(80 129)
2(130 131)
2(132 133)
2(134 135)
2(82 136)
2(137 138)
2(84 139)
2(74 140)
2(141 142)
2(143 144)
2(116 145)
2(108 146)
2(108 147)
2(106 145)
2(106 148)
2(149 144)
2(150 151)
2(152 153)
2(154 155)
2(156 157)
2(158 159)
2(160 159)
2(160 161)
2(162 163)
2(163 164)
2(165 164)
2(165 166)
2(167 136)
2(168 129)
2(169 170)
2(171 138)
2(172 173)
2(174 133)
2(175 176)
2(177 135)
2(178 131)
2(179 180)
2(179 124)
2(181 124)
2(181 126)
2(75 121)
2(182 183)
2(182 184)
2(182 185)
2(186 187)
2(186 188)
2(189 188)
2(189 190)
2(191 192)
2(191 193)
2(195 196)
2(195 197)
2(198 197)
2(198 199)
2(200 201)
2(200 202)
2(200 203)
2(204 205)
2(204 187)
2(192 207)
2(192 208)
2(193 209)
2(193 210)
2(201 211)
2(213 214)
2(213 199)
2(202 205)
2(216 214)
2(216 217)
2(209 218)
2(205 220)
2(221 222)
2(221 217)
2(207 211)
2(218 224)
2(218 225)
2(224 226)
2(228 222)
2(228 229)
2(187 230)
2(226 231)
2(226 232)
2(233 229)
2(233 234)
2(235 236)
2(235 234)
2(231 237)
2(188 239)
2(240 236)
2(240 241)
2(237 242)
2(237 243)
2(242 244)
2(183 241)
2(190 246)
2(190 247)
2(244 0)
2(244 3)
2(184 248)
2(246 196)
2(251 252)
2(251 248)
2(196 253)
2(254 252)
2(254 255)
2(197 256)
2(211 257)
2(258 259)
2(258 255)
2(260 261)
2(260 259)
2(214 262)
2(199 263)
2(264 261)
2(264 265)
2(266 267)
2(266 265)
2(222 268)
2(217 269)
2(270 271)
2(270 272)
2(1 271)
2(229 273)
2(271 33)
2(272 267)
2(272 274)
2(267 275)
2(236 276)
2(234 277)
2(261 278)
2(259 279)
2(265 280)
2(241 281)
2(252 282)
2(248 283)
2(255 284)
2(2 274)
2(2 33)
2(3 5)
2(232 4)
2(232 6)
2(225 6)
2(225 7)
2(4 243)
2(5 243)
2(210 7)
2(210 8)
2(208 8)
2(208 9)
2(257 9)
2(257 10)
2(203 10)
2(203 11)
2(220 11)
2(220 12)
2(230 12)
2(230 13)
2(239 13)
2(239 14)
2(247 14)
2(247 15)
2(253 15)
2(253 16)
2(256 16)
2(256 17)
2(263 17)
2(263 18)
2(262 18)
2(262 19)
2(269 19)
2(269 20)
2(268 20)
2(268 21)
2(273 21)
2(273 22)
2(277 22)
2(277 23)
2(276 23)
2(276 24)
2(281 24)
2(281 25)
2(185 25)
2(185 26)
2(283 26)
2(283 27)
2(282 27)
2(282 28)
2(284 28)
2(284 29)
2(279 29)
2(279 30)
2(278 30)
2(278 31)
2(280 31)
2(280 32)
2(275 32)
2(275 35)
2(274 34)
2(34 35)
2(36 285)
2(36 67)
2(37 39)
2(37 70)
2(286 38)
2(286 40)
2(286 287)
2(288 40)
2(288 41)
2(288 289)
2(38 290)
2(39 290)
2(290 291)
2(292 41)
2(292 42)
2(292 293)
2(294 42)
2(294 43)
2(294 295)
2(296 43)
2(296 44)
2(296 297)
2(298 44)
2(298 45)
2(298 299)
2(300 45)
2(300 46)
2(300 301)
2(302 46)
2(302 47)
2(302 303)
2(304 47)
2(304 48)
2(304 305)
2(306 48)
2(306 49)
2(306 307)
2(308 49)
2(308 50)
2(308 309)
2(310 50)
2(310 51)
2(310 311)
2(312 51)
2(312 52)
2(312 313)
2(314 52)
2(314 53)
2(314 315)
2(316 53)
2(316 54)
2(316 317)
2(318 54)
2(318 55)
2(318 319)
2(320 55)
2(320 56)
2(320 321)
2(322 56)
2(322 57)
2(322 323)
2(324 57)
2(324 58)
2(324 325)
2(326 58)
2(326 59)
2(326 327)
2(328 59)
2(328 60)
2(328 329)
2(330 60)
2(330 61)
2(330 331)
2(332 61)
2(332 62)
2(332 333)
2(334 62)
2(334 63)
2(334 335)
2(336 63)
2(336 64)
2(336 337)
2(338 64)
2(338 65)
2(338 339)
2(340 65)
2(340 66)
2(340 341)
2(342 66)
2(342 69)
2(342 343)
2(285 68)
2(285 344)
2(67 71)
2(68 69)
2(335 345)
2(335 333)
2(70 346)
2(346 291)
2(347 348)
2(347 291)
2(348 287)
2(349 289)
2(349 293)
2(350 293)
2(350 295)
2(351 287)
2(351 289)
2(352 297)
2(352 295)
2(353 297)
2(353 299)
2(355 356)
2(355 303)
2(356 305)
2(357 299)
2(357 301)
2(358 305)
2(358 307)
2(359 307)
2(359 309)
2(360 313)
2(360 311)
2(361 313)
2(361 315)
2(362 309)
2(362 311)
2(303 301)
2(363 315)
2(363 317)
2(364 317)
2(364 319)
2(365 319)
2(365 321)
2(366 321)
2(366 323)
2(367 323)
2(367 325)
2(368 325)
2(368 327)
2(370 329)
2(370 327)
2(371 329)
2(371 331)
2(372 331)
2(372 333)
2(345 373)
2(373 337)
2(374 341)
2(374 339)
2(375 343)
2(375 341)
2(376 337)
2(376 339)
2(377 344)
2(377 343)
2(378 344)
2(378 71)
2(76 206)
2(76 170)
2(379 90)
2(379 97)
2(379 380)
2(215 381)
2(215 382)
2(212 381)
2(212 137)
2(86 155)
2(89 91)
2(89 161)
2(223 132)
2(223 137)
2(194 130)
2(194 132)
2(92 101)
2(92 159)
2(219 130)
2(219 134)
2(98 249)
2(98 383)
2(249 102)
2(227 125)
2(227 134)
2(102 146)
2(100 157)
2(238 123)
2(238 125)
2(245 123)
2(245 127)
2(96 166)
2(206 382)
2(87 153)
2(105 107)
2(105 112)
2(110 114)
2(118 120)
2(118 141)
2(115 143)
2(119 74)
2(250 73)
2(250 127)
2(94 164)
2(381 173)
2(382 176)
2(139 169)
2(139 136)
2(141 143)
2(113 116)
2(113 149)
2(146 354)
2(140 142)
2(147 148)
2(150 380)
2(151 383)
2(354 383)
2(152 154)
2(156 158)
2(162 122)
2(167 168)
2(369 170)
2(369 175)
2(171 174)
2(172 138)
2(380 155)
2(122 129)
2(153 161)
2(157 166)
2(177 178)
2(180 128)
2(128 121)
2(135 126)
2(133 131)
2(176 173)
1(0)
1(1)
1(2)
1(3)
1(4)
1(5)
1(6)
1(7)
1(8)
1(9)
1(10)
1(11)
1(12)
1(13)
1(14)
1(15)
1(16)
1(17)
1(18)
1(19)
1(20)
1(21)
1(22)
1(23)
1(24)
1(25)
1(26)
1(27)
1(28)
1(29)
1(30)
1(31)
1(32)
1(33)
1(34)
1(35)
1(36)
1(37)
1(38)
1(39)
1(40)
1(41)
1(42)
1(43)
1(44)
1(45)
1(46)
1(47)
1(48)
1(49)
1(50)
1(51)
1(52)
1(53)
1(54)
1(55)
1(56)
1(57)
1(58)
1(59)
1(60)
1(61)
1(62)
1(63)
1(64)
1(65)
1(66)
1(67)
1(68)
1(69)
1(70)
1(71)
1(72)
1(73)
1(74)
1(75)
)

// featurePointNormals

231
(
1(182)
2(183 97)
1(182)
2(186 77)
2(186 77)
1(186)
2(189 83)
1(189)
2(191 194)
1(191)
2(191 194)
2(195 78)
2(195 78)
1(195)
2(198 93)
1(198)
1(200)
2(201 212)
1(200)
2(204 206)
1(204)
1(192)
1(193)
2(201 212)
2(213 95)
1(213)
2(216 99)
1(216)
2(209 219)
2(221 101)
1(221)
1(218)
2(224 227)
2(228 91)
1(228)
1(226)
2(233 88)
1(233)
2(235 85)
1(235)
2(231 238)
2(240 90)
1(240)
1(237)
2(242 245)
1(190)
1(244)
2(184 249)
2(0 250)
2(251 103)
1(251)
2(254 107)
1(254)
2(258 112)
1(258)
2(260 109)
1(260)
2(264 114)
1(264)
2(266 117)
1(266)
2(270 120)
1(270)
2(1 72)
1(1)
1(272)
1(2)
1(2)
1(3)
1(232)
1(225)
1(4)
1(210)
1(208)
1(257)
1(203)
1(220)
1(230)
1(239)
1(247)
1(253)
1(256)
1(263)
1(262)
1(269)
1(268)
1(273)
1(277)
1(276)
1(281)
1(185)
1(283)
1(282)
1(284)
1(279)
1(278)
1(280)
1(275)
1(34)
1(36)
1(36)
1(36)
1(37)
1(37)
1(37)
1(286)
1(286)
1(286)
1(288)
1(288)
1(38)
1(292)
1(292)
1(294)
1(294)
1(296)
1(296)
1(298)
1(298)
1(300)
1(300)
1(302)
1(302)
1(304)
1(304)
1(306)
1(306)
1(308)
1(308)
1(310)
1(310)
1(312)
1(312)
1(314)
1(314)
1(316)
1(316)
1(318)
1(318)
1(320)
1(320)
1(322)
1(322)
1(324)