/*--------------------------------*- C++ -*----------------------------------*\
  =========                 |
  \\      /  F ield         | OpenFOAM: The Open Source CFD Toolbox
   \\    /   O peration     | Website:  https://openfoam.org
    \\  /    A nd           | Version:  9
     \\/     M anipulation  |
\*---------------------------------------------------------------------------*/
FoamFile
{
    format      ascii;
    class       extendedFeatureEdgeMesh;
    location    "constant/extendedFeatureEdgeMesh";
    object      Outlet.extendedFeatureEdgeMesh;
}
// * * * * * * * * * * * * * * * * * * * * * * * * * * * * * * * * * * * * * //

// points

441
(
(56.7409 7.8125 4.90968)
(56.7409 8 5.75391)
(56.7409 8 4.90968)
(56.7409 2.75 4.90968)
(56.7409 2.9375 5.75391)
(56.7409 2.9375 4.90968)
(56.7409 8.5 4.90968)
(56.7409 8.75 5.75391)
(56.7409 8.75 4.90968)
(56.7409 5.1875 4.90968)
(56.7409 5.375 5.75391)
(56.7409 5.375 4.90968)
(56.7409 4.8125 4.90968)
(56.7409 5 5.75391)
(56.7409 5 4.90968)
(56.7409 6.5 4.90968)
(56.7409 6.6875 5.75391)
(56.7409 6.6875 4.90968)
(56.7409 9 4.90968)
(56.7409 9.25 5.75391)
(56.7409 9.25 4.90968)
(56.7409 2.1875 4.90968)
(56.7409 2.375 5.75391)
(56.7409 2.375 4.90968)
(56.7409 6.3125 4.90968)
(56.7409 6.5 5.75391)
(56.7409 3.5 4.90968)
(56.7409 3.6875 5.75391)
(56.7409 3.6875 4.90968)
(56.7409 8.25 5.75391)
(56.7409 8.25 4.90968)
(56.7409 7.625 4.90968)
(56.7409 7.8125 5.75391)
(56.7409 3.3125 4.90968)
(56.7409 3.5 5.75391)
(56.7409 5.1875 5.75391)
(56.7409 4.625 4.90968)
(56.7409 4.8125 5.75391)
(56.7409 7.0625 4.90968)
(56.7409 7.25 5.75391)
(56.7409 7.25 4.90968)
(56.7409 2 4.90968)
(56.7409 2.1875 5.75391)
(56.7409 6.125 4.90968)
(56.7409 6.3125 5.75391)
(56.7409 4.0625 4.90968)
(56.7409 4.25 5.75391)
(56.7409 4.25 4.90968)
(56.7409 3.125 4.90968)
(56.7409 3.3125 5.75391)
(56.7409 5.5625 4.90968)
(56.7409 5.75 5.75391)
(56.7409 5.75 4.90968)
(56.7409 9.75 4.90968)
(56.7409 10 5.75391)
(56.7409 10 4.90968)
(56.7409 1.25 4.90968)
(56.7409 1.5 5.75391)
(56.7409 1.5 4.90968)
(56.7409 6.875 4.90968)
(56.7409 7.0625 5.75391)
(56.7409 2.5625 4.90968)
(56.7409 2.75 5.75391)
(56.7409 1.75 4.90968)
(56.7409 2 5.75391)
(56.7409 0.25 4.90968)
(56.7409 0.5 5.75391)
(56.7409 0.5 4.90968)
(56.7409 3.875 4.90968)
(56.7409 4.0625 5.75391)
(56.7409 7.4375 4.90968)
(56.7409 7.625 5.75391)
(56.7409 1.75 5.75391)
(56.7409 5.5625 5.75391)
(56.7409 4.4375 4.90968)
(56.7409 4.625 5.75391)
(56.7409 0.75 5.75391)
(56.7409 0.75 4.90968)
(56.7409 2.5625 5.75391)
(56.7409 5.9375 4.90968)
(56.7409 6.125 5.75391)
(56.7409 1 4.90968)
(56.7409 1.25 5.75391)
(56.7409 7.4375 5.75391)
(56.7409 9.5 5.75391)
(56.7409 9.5 4.90968)
(56.7409 3.125 5.75391)
(56.7409 0 4.90968)
(56.7409 0.25 5.75391)
(56.7409 4.4375 5.75391)
(56.7409 8.5 5.75391)
(56.7409 6.875 5.75391)
(56.7409 9 5.75391)
(56.7409 5.9375 5.75391)
(56.7409 9.75 5.75391)
(56.7409 3.875 5.75391)
(56.7409 1 5.75391)
(56.7409 0.75 1.53272)
(56.7409 1 2.37696)
(56.7409 1 1.53272)
(56.7409 3.6875 1.53272)
(56.7409 3.875 2.37696)
(56.7409 3.875 1.53272)
(56.7409 9.5 1.53272)
(56.7409 9.75 2.37696)
(56.7409 9.75 1.53272)
(56.7409 5.75 1.53272)
(56.7409 5.9375 2.37696)
(56.7409 5.9375 1.53272)
(56.7409 8.75 1.53272)
(56.7409 9 2.37696)
(56.7409 9 1.53272)
(56.7409 6.6875 1.53272)
(56.7409 6.875 2.37696)
(56.7409 6.875 1.53272)
(56.7409 8.25 1.53272)
(56.7409 8.5 2.37696)
(56.7409 8.5 1.53272)
(56.7409 4.25 1.53272)
(56.7409 4.4375 2.37696)
(56.7409 4.4375 1.53272)
(56.7409 0 1.53272)
(56.7409 0.25 2.37696)
(56.7409 0.25 1.53272)
(56.7409 2.9375 1.53272)
(56.7409 3.125 2.37696)
(56.7409 3.125 1.53272)
(56.7409 9.25 1.53272)
(56.7409 9.5 2.37696)
(56.7409 7.25 1.53272)
(56.7409 7.4375 2.37696)
(56.7409 7.4375 1.53272)
(56.7409 1.25 2.37696)
(56.7409 1.25 1.53272)
(56.7409 6.125 2.37696)
(56.7409 6.125 1.53272)
(56.7409 2.375 1.53272)
(56.7409 2.5625 2.37696)
(56.7409 2.5625 1.53272)
(56.7409 0.5 1.53272)
(56.7409 0.75 2.37696)
(56.7409 4.625 2.37696)
(56.7409 4.625 1.53272)
(56.7409 5.375 1.53272)
(56.7409 5.5625 2.37696)
(56.7409 5.5625 1.53272)
(56.7409 1.5 1.53272)
(56.7409 1.75 2.37696)
(56.7409 1.75 1.53272)
(56.7409 7.625 2.37696)
(56.7409 7.625 1.53272)
(56.7409 4.0625 2.37696)
(56.7409 4.0625 1.53272)
(56.7409 0.5 2.37696)
(56.7409 2 2.37696)
(56.7409 2 1.53272)
(56.7409 2.75 2.37696)
(56.7409 2.75 1.53272)
(56.7409 7.0625 2.37696)
(56.7409 7.0625 1.53272)
(56.7409 1.5 2.37696)
(56.7409 10 2.37696)
(56.7409 5.75 2.37696)
(56.7409 3.3125 2.37696)
(56.7409 3.3125 1.53272)
(56.7409 4.25 2.37696)
(56.7409 6.3125 2.37696)
(56.7409 6.3125 1.53272)
(56.7409 2.1875 2.37696)
(56.7409 2.1875 1.53272)
(56.7409 7.25 2.37696)
(56.7409 4.8125 2.37696)
(56.7409 4.8125 1.53272)
(56.7409 5 1.53272)
(56.7409 5.1875 2.37696)
(56.7409 5.1875 1.53272)
(56.7409 3.5 2.37696)
(56.7409 3.5 1.53272)
(56.7409 7.8125 2.37696)
(56.7409 7.8125 1.53272)
(56.7409 8 1.53272)
(56.7409 8.25 2.37696)
(56.7409 3.6875 2.37696)
(56.7409 6.5 2.37696)
(56.7409 6.5 1.53272)
(56.7409 2.375 2.37696)
(56.7409 9.25 2.37696)
(56.7409 6.6875 2.37696)
(56.7409 5 2.37696)
(56.7409 5.375 2.37696)
(56.7409 8.75 2.37696)
(56.7409 2.9375 2.37696)
(56.7409 8 2.37696)
(56.7409 7.8125 -0.155761)
(56.7409 8 0.688478)
(56.7409 8 -0.155761)
(56.7409 2.75 -0.155761)
(56.7409 2.9375 0.688478)
(56.7409 2.9375 -0.155761)
(56.7409 8.5 -0.155761)
(56.7409 8.75 0.688478)
(56.7409 8.75 -0.155761)
(56.7409 5.1875 -0.155761)
(56.7409 5.375 0.688478)
(56.7409 5.375 -0.155761)
(56.7409 4.8125 -0.155761)
(56.7409 5 0.688478)
(56.7409 5 -0.155761)
(56.7409 6.5 -0.155761)
(56.7409 6.6875 0.688478)
(56.7409 6.6875 -0.155761)
(56.7409 9 -0.155761)
(56.7409 9.25 0.688478)
(56.7409 9.25 -0.155761)
(56.7409 2.1875 -0.155761)
(56.7409 2.375 0.688478)
(56.7409 2.375 -0.155761)
(56.7409 6.3125 -0.155761)
(56.7409 6.5 0.688478)
(56.7409 3.5 -0.155761)
(56.7409 3.6875 0.688478)
(56.7409 3.6875 -0.155761)
(56.7409 8.25 0.688478)
(56.7409 8.25 -0.155761)
(56.7409 7.625 -0.155761)
(56.7409 7.8125 0.688478)
(56.7409 3.3125 -0.155761)
(56.7409 3.5 0.688478)
(56.7409 5.1875 0.688478)
(56.7409 4.625 -0.155761)
(56.7409 4.8125 0.688478)
(56.7409 7.0625 -0.155761)
(56.7409 7.25 0.688478)
(56.7409 7.25 -0.155761)
(56.7409 2 -0.155761)
(56.7409 2.1875 0.688478)
(56.7409 6.125 -0.155761)
(56.7409 6.3125 0.688478)
(56.7409 4.0625 -0.155761)
(56.7409 4.25 0.688478)
(56.7409 4.25 -0.155761)
(56.7409 3.125 -0.155761)
(56.7409 3.3125 0.688478)
(56.7409 5.5625 -0.155761)
(56.7409 5.75 0.688478)
(56.7409 5.75 -0.155761)
(56.7409 9.75 -0.155761)
(56.7409 10 0.688478)
(56.7409 10 -0.155761)
(56.7409 1.25 -0.155761)
(56.7409 1.5 0.688478)
(56.7409 1.5 -0.155761)
(56.7409 6.875 -0.155761)
(56.7409 7.0625 0.688478)
(56.7409 2.5625 -0.155761)
(56.7409 2.75 0.688478)
(56.7409 1.75 -0.155761)
(56.7409 2 0.688478)
(56.7409 0.25 -0.155761)
(56.7409 0.5 0.688478)
(56.7409 0.5 -0.155761)
(56.7409 3.875 -0.155761)
(56.7409 4.0625 0.688478)
(56.7409 7.4375 -0.155761)
(56.7409 7.625 0.688478)
(56.7409 1.75 0.688478)
(56.7409 5.5625 0.688478)
(56.7409 4.4375 -0.155761)
(56.7409 4.625 0.688478)
(56.7409 0.75 0.688478)
(56.7409 0.75 -0.155761)
(56.7409 2.5625 0.688478)
(56.7409 5.9375 -0.155761)
(56.7409 6.125 0.688478)
(56.7409 1 -0.155761)
(56.7409 1.25 0.688478)
(56.7409 7.4375 0.688478)
(56.7409 9.5 0.688478)
(56.7409 9.5 -0.155761)
(56.7409 3.125 0.688478)
(56.7409 -1e-06 -0.155761)
(56.7409 0.25 0.688478)
(56.7409 4.4375 0.688478)
(56.7409 8.5 0.688478)
(56.7409 6.875 0.688478)
(56.7409 9 0.688478)
(56.7409 5.9375 0.688478)
(56.7409 9.75 0.688478)
(56.7409 3.875 0.688478)
(56.7409 1 0.688478)
(56.7409 0.75 3.2212)
(56.7409 1 4.06543)
(56.7409 1 3.2212)
(56.7409 3.6875 3.2212)
(56.7409 3.875 4.06543)
(56.7409 3.875 3.2212)
(56.7409 9.5 3.2212)
(56.7409 9.75 4.06543)
(56.7409 9.75 3.2212)
(56.7409 5.75 3.2212)
(56.7409 5.9375 4.06543)
(56.7409 5.9375 3.2212)
(56.7409 8.75 3.2212)
(56.7409 9 4.06543)
(56.7409 9 3.2212)
(56.7409 6.6875 3.2212)
(56.7409 6.875 4.06543)
(56.7409 6.875 3.2212)
(56.7409 8.25 3.2212)
(56.7409 8.5 4.06543)
(56.7409 8.5 3.2212)
(56.7409 4.25 3.2212)
(56.7409 4.4375 4.06543)
(56.7409 4.4375 3.2212)
(56.7409 -1e-06 3.2212)
(56.7409 0.25 4.06543)
(56.7409 0.25 3.2212)
(56.7409 2.9375 3.2212)
(56.7409 3.125 4.06543)
(56.7409 3.125 3.2212)
(56.7409 9.25 3.2212)
(56.7409 9.5 4.06543)
(56.7409 7.25 3.2212)
(56.7409 7.4375 4.06543)
(56.7409 7.4375 3.2212)
(56.7409 1.25 4.06543)
(56.7409 1.25 3.2212)
(56.7409 6.125 4.06543)
(56.7409 6.125 3.2212)
(56.7409 2.375 3.2212)
(56.7409 2.5625 4.06543)
(56.7409 2.5625 3.2212)
(56.7409 0.5 3.2212)
(56.7409 0.75 4.06543)
(56.7409 4.625 4.06543)
(56.7409 4.625 3.2212)
(56.7409 5.375 3.2212)
(56.7409 5.5625 4.06543)
(56.7409 5.5625 3.2212)
(56.7409 1.5 3.2212)
(56.7409 1.75 4.06543)
(56.7409 1.75 3.2212)
(56.7409 7.625 4.06543)
(56.7409 7.625 3.2212)
(56.7409 4.0625 4.06543)
(56.7409 4.0625 3.2212)
(56.7409 0.5 4.06543)
(56.7409 2 4.06543)
(56.7409 2 3.2212)
(56.7409 2.75 4.06543)
(56.7409 2.75 3.2212)
(56.7409 7.0625 4.06543)
(56.7409 7.0625 3.2212)
(56.7409 1.5 4.06543)
(56.7409 10 4.06543)
(56.7409 10 3.2212)
(56.7409 5.75 4.06543)
(56.7409 3.3125 4.06543)
(56.7409 3.3125 3.2212)
(56.7409 4.25 4.06543)
(56.7409 6.3125 4.06543)
(56.7409 6.3125 3.2212)
(56.7409 2.1875 4.06543)
(56.7409 2.1875 3.2212)
(56.7409 7.25 4.06543)
(56.7409 4.8125 4.06543)
(56.7409 4.8125 3.2212)
(56.7409 5 3.2212)
(56.7409 5.1875 4.06543)
(56.7409 5.1875 3.2212)
(56.7409 3.5 4.06543)
(56.7409 3.5 3.2212)
(56.7409 7.8125 4.06543)
(56.7409 7.8125 3.2212)
(56.7409 8 3.2212)
(56.7409 8.25 4.06543)
(56.7409 3.6875 4.06543)
(56.7409 6.5 4.06543)
(56.7409 6.5 3.2212)
(56.7409 2.375 4.06543)
(56.7409 9.25 4.06543)
(56.7409 6.6875 4.06543)
(56.7409 5 4.06543)
(56.7409 5.375 4.06543)
(56.7409 8.75 4.06543)
(56.7409 2.9375 4.06543)
(56.7409 8 4.06543)
(56.7409 -1e-06 2.37696)
(56.7409 0.75 -1)
(56.7409 1 -1)
(56.7409 3.6875 -1)
(56.7409 3.875 -1)
(56.7409 9.5 -1)
(56.7409 9.75 -1)
(56.7409 5.75 -1)
(56.7409 5.9375 -1)
(56.7409 8.75 -1)
(56.7409 9 -1)
(56.7409 6.6875 -1)
(56.7409 6.875 -1)
(56.7409 8.25 -1)
(56.7409 8.5 -1)
(56.7409 4.25 -1)
(56.7409 4.4375 -1)
(56.7409 0 -1)
(56.7409 0.25 -1)
(56.7409 2.9375 -1)
(56.7409 3.125 -1)
(56.7409 9.25 -1)
(56.7409 7.25 -1)
(56.7409 7.4375 -1)
(56.7409 1.25 -1)
(56.7409 6.125 -1)
(56.7409 2.375 -1)
(56.7409 2.5625 -1)
(56.7409 0.5 -1)
(56.7409 4.625 -1)
(56.7409 5.375 -1)
(56.7409 5.5625 -1)
(56.7409 1.5 -1)
(56.7409 1.75 -1)
(56.7409 7.625 -1)
(56.7409 4.0625 -1)
(56.7409 2 -1)
(56.7409 2.75 -1)
(56.7409 7.0625 -1)
(56.7409 10 -1)
(56.7409 3.3125 -1)
(56.7409 6.3125 -1)
(56.7409 2.1875 -1)
(56.7409 4.8125 -1)
(56.7409 5 -1)
(56.7409 5.1875 -1)
(56.7409 3.5 -1)
(56.7409 7.8125 -1)
(56.7409 8 -1)
(56.7409 6.5 -1)
(56.7409 -1e-06 0.688478)
(56.7409 0 4.06543)
(56.7409 -1e-06 5.75391)
(56.7409 10 1.53272)
)

// edges

1208
(
(0 1)
(1 2)
(2 0)
(3 4)
(4 5)
(5 3)
(6 7)
(7 8)
(8 6)
(9 10)
(10 11)
(11 9)
(12 13)
(13 14)
(14 12)
(15 16)
(16 17)
(17 15)
(18 19)
(19 20)
(20 18)
(21 22)
(22 23)
(23 21)
(25 15)
(24 25)
(15 24)
(26 27)
(27 28)
(28 26)
(2 29)
(29 30)
(30 2)
(32 0)
(31 32)
(0 31)
(34 26)
(33 34)
(26 33)
(35 9)
(14 35)
(9 14)
(37 12)
(36 37)
(12 36)
(38 39)
(39 40)
(40 38)
(42 21)
(41 42)
(21 41)
(44 24)
(43 44)
(24 43)
(45 46)
(46 47)
(47 45)
(49 33)
(48 49)
(33 48)
(50 51)
(51 52)
(52 50)
(53 54)
(55 53)
(56 57)
(57 58)
(58 56)
(60 38)
(59 60)
(38 59)
(62 3)
(61 62)
(3 61)
(64 41)
(63 64)
(41 63)
(65 66)
(66 67)
(67 65)
(69 45)
(68 69)
(45 68)
(71 31)
(70 71)
(31 70)
(72 63)
(58 72)
(63 58)
(73 50)
(11 73)
(50 11)
(75 36)
(74 75)
(36 74)
(67 76)
(76 77)
(77 67)
(78 61)
(23 78)
(61 23)
(80 43)
(79 80)
(43 79)
(82 56)
(81 82)
(56 81)
(83 70)
(40 83)
(70 40)
(20 84)
(84 85)
(85 20)
(86 48)
(5 86)
(48 5)
(88 65)
(87 88)
(65 87)
(89 74)
(47 89)
(74 47)
(90 6)
(30 90)
(6 30)
(91 59)
(17 91)
(59 17)
(92 18)
(8 92)
(18 8)
(93 79)
(52 93)
(79 52)
(94 53)
(85 94)
(53 85)
(95 68)
(28 95)
(68 28)
(96 81)
(77 96)
(81 77)
(97 98)
(98 99)
(99 97)
(100 101)
(101 102)
(102 100)
(104 105)
(103 104)
(105 103)
(106 107)
(107 108)
(108 106)
(109 110)
(110 111)
(111 109)
(112 113)
(113 114)
(114 112)
(115 116)
(116 117)
(117 115)
(118 119)
(119 120)
(120 118)
(121 122)
(122 123)
(123 121)
(124 125)
(125 126)
(126 124)
(128 103)
(127 128)
(103 127)
(129 130)
(130 131)
(131 129)
(99 132)
(132 133)
(133 99)
(108 134)
(134 135)
(135 108)
(136 137)
(137 138)
(138 136)
(140 97)
(139 140)
(97 139)
(120 141)
(141 142)
(142 120)
(143 144)
(144 145)
(145 143)
(146 147)
(147 148)
(148 146)
(131 149)
(149 150)
(150 131)
(102 151)
(151 152)
(152 102)
(153 139)
(123 153)
(139 123)
(148 154)
(154 155)
(155 148)
(138 156)
(156 157)
(157 138)
(114 158)
(158 159)
(159 114)
(160 146)
(133 160)
(146 133)
(104 161)
(161 105)
(162 106)
(145 162)
(106 145)
(126 163)
(163 164)
(164 126)
(165 118)
(152 165)
(118 152)
(135 166)
(166 167)
(167 135)
(155 168)
(168 169)
(169 155)
(170 129)
(159 170)
(129 159)
(142 171)
(171 172)
(172 142)
(173 174)
(174 175)
(175 173)
(164 176)
(176 177)
(177 164)
(150 178)
(178 179)
(179 150)
(181 115)
(180 181)
(115 180)
(182 100)
(177 182)
(100 177)
(167 183)
(183 184)
(184 167)
(185 136)
(169 185)
(136 169)
(186 127)
(111 186)
(127 111)
(187 112)
(184 187)
(112 184)
(188 173)
(172 188)
(173 172)
(189 143)
(175 189)
(143 175)
(190 109)
(117 190)
(109 117)
(191 124)
(157 191)
(124 157)
(192 180)
(179 192)
(180 179)
(193 194)
(194 195)
(195 193)
(196 197)
(197 198)
(198 196)
(199 200)
(200 201)
(201 199)
(202 203)
(203 204)
(204 202)
(205 206)
(206 207)
(207 205)
(208 209)
(209 210)
(210 208)
(211 212)
(212 213)
(213 211)
(214 215)
(215 216)
(216 214)
(218 208)
(217 218)
(208 217)
(219 220)
(220 221)
(221 219)
(195 222)
(222 223)
(223 195)
(225 193)
(224 225)
(193 224)
(227 219)
(226 227)
(219 226)
(228 202)
(207 228)
(202 207)
(230 205)
(229 230)
(205 229)
(231 232)
(232 233)
(233 231)
(235 214)
(234 235)
(214 234)
(237 217)
(236 237)
(217 236)
(238 239)
(239 240)
(240 238)
(242 226)
(241 242)
(226 241)
(243 244)
(244 245)
(245 243)
(246 247)
(248 246)
(249 250)
(250 251)
(251 249)
(253 231)
(252 253)
(231 252)
(255 196)
(254 255)
(196 254)
(257 234)
(256 257)
(234 256)
(258 259)
(259 260)
(260 258)
(262 238)
(261 262)
(238 261)
(264 224)
(263 264)
(224 263)
(265 256)
(251 265)
(256 251)
(266 243)
(204 266)
(243 204)
(268 229)
(267 268)
(229 267)
(260 269)
(269 270)
(270 260)
(271 254)
(216 271)
(254 216)
(273 236)
(272 273)
(236 272)
(275 249)
(274 275)
(249 274)
(276 263)
(233 276)
(263 233)
(213 277)
(277 278)
(278 213)
(279 241)
(198 279)
(241 198)
(281 258)
(280 281)
(258 280)
(282 267)
(240 282)
(267 240)
(283 199)
(223 283)
(199 223)
(284 252)
(210 284)
(252 210)
(285 211)
(201 285)
(211 201)
(286 272)
(245 286)
(272 245)
(287 246)
(278 287)
(246 278)
(288 261)
(221 288)
(261 221)
(289 274)
(270 289)
(274 270)
(290 291)
(291 292)
(292 290)
(293 294)
(294 295)
(295 293)
(296 297)
(297 298)
(298 296)
(299 300)
(300 301)
(301 299)
(302 303)
(303 304)
(304 302)
(305 306)
(306 307)
(307 305)
(308 309)
(309 310)
(310 308)
(311 312)
(312 313)
(313 311)
(314 315)
(315 316)
(316 314)
(317 318)
(318 319)
(319 317)
(321 296)
(320 321)
(296 320)
(322 323)
(323 324)
(324 322)
(292 325)
(325 326)
(326 292)
(301 327)
(327 328)
(328 301)
(329 330)
(330 331)
(331 329)
(333 290)
(332 333)
(290 332)
(313 334)
(334 335)
(335 313)
(336 337)
(337 338)
(338 336)
(339 340)
(340 341)
(341 339)
(324 342)
(342 343)
(343 324)
(295 344)
(344 345)
(345 295)
(346 332)
(316 346)
(332 316)
(341 347)
(347 348)
(348 341)
(331 349)
(349 350)
(350 331)
(307 351)
(351 352)
(352 307)
(353 339)
(326 353)
(339 326)
(298 354)
(355 298)
(356 299)
(338 356)
(299 338)
(319 357)
(357 358)
(358 319)
(359 311)
(345 359)
(311 345)
(328 360)
(360 361)
(361 328)
(348 362)
(362 363)
(363 348)
(364 322)
(352 364)
(322 352)
(335 365)
(365 366)
(366 335)
(367 368)
(368 369)
(369 367)
(358 370)
(370 371)
(371 358)
(343 372)
(372 373)
(373 343)
(375 308)
(374 375)
(308 374)
(376 293)
(371 376)
(293 371)
(361 377)
(377 378)
(378 361)
(379 329)
(363 379)
(329 363)
(380 320)
(304 380)
(320 304)
(381 305)
(378 381)
(305 378)
(382 367)
(366 382)
(367 366)
(383 336)
(369 383)
(336 369)
(384 302)
(310 384)
(302 310)
(385 317)
(350 385)
(317 350)
(386 374)
(373 386)
(374 373)
(192 178)
(178 374)
(374 192)
(191 156)
(156 317)
(317 191)
(190 116)
(116 302)
(302 190)
(189 174)
(174 336)
(336 189)
(188 171)
(171 367)
(367 188)
(187 183)
(183 305)
(305 187)
(186 110)
(110 320)
(320 186)
(185 168)
(168 329)
(329 185)
(183 166)
(378 183)
(166 378)
(182 176)
(176 293)
(293 182)
(181 192)
(192 308)
(308 181)
(178 149)
(373 178)
(149 373)
(176 163)
(371 176)
(163 371)
(174 188)
(369 174)
(188 369)
(171 141)
(366 171)
(141 366)
(170 158)
(158 322)
(322 170)
(168 154)
(363 168)
(154 363)
(166 134)
(361 166)
(134 361)
(165 151)
(151 311)
(311 165)
(163 125)
(358 163)
(125 358)
(162 144)
(144 299)
(299 162)
(104 355)
(160 132)
(132 339)
(339 160)
(158 113)
(352 158)
(113 352)
(156 137)
(350 156)
(137 350)
(154 147)
(348 154)
(147 348)
(153 122)
(122 332)
(332 153)
(151 101)
(345 151)
(101 345)
(149 130)
(343 149)
(130 343)
(147 160)
(341 147)
(160 341)
(144 189)
(338 144)
(189 338)
(141 119)
(335 141)
(119 335)
(140 153)
(153 290)
(290 140)
(137 185)
(331 137)
(185 331)
(134 107)
(328 134)
(107 328)
(132 98)
(326 132)
(98 326)
(130 170)
(324 130)
(170 324)
(128 186)
(186 296)
(296 128)
(125 191)
(319 125)
(191 319)
(122 387)
(316 122)
(387 316)
(119 165)
(313 119)
(165 313)
(116 181)
(310 116)
(181 310)
(113 187)
(307 113)
(187 307)
(110 190)
(304 110)
(190 304)
(107 162)
(301 107)
(162 301)
(104 128)
(298 104)
(128 298)
(101 182)
(295 101)
(182 295)
(98 140)
(292 98)
(140 292)
(388 274)
(274 389)
(390 261)
(261 391)
(392 246)
(246 393)
(394 272)
(272 395)
(396 211)
(211 397)
(398 252)
(252 399)
(400 199)
(199 401)
(402 267)
(267 403)
(404 258)
(258 405)
(406 241)
(241 407)
(278 392)
(408 278)
(409 263)
(263 410)
(389 249)
(249 411)
(395 236)
(236 412)
(413 254)
(254 414)
(270 388)
(415 270)
(403 229)
(229 416)
(417 243)
(243 418)
(419 256)
(256 420)
(410 224)
(224 421)
(391 238)
(238 422)
(260 415)
(405 260)
(420 234)
(234 423)
(414 196)
(196 424)
(399 231)
(231 425)
(251 419)
(411 251)
(393 248)
(245 394)
(418 245)
(407 226)
(226 427)
(240 402)
(422 240)
(412 217)
(217 428)
(423 214)
(214 429)
(233 409)
(425 233)
(416 205)
(205 430)
(431 202)
(202 432)
(427 219)
(219 433)
(421 193)
(193 434)
(223 400)
(435 223)
(221 390)
(433 221)
(428 208)
(208 436)
(216 413)
(429 216)
(213 408)
(397 213)
(210 398)
(436 210)
(207 431)
(430 207)
(204 417)
(432 204)
(201 396)
(401 201)
(198 406)
(424 198)
(195 435)
(434 195)
(194 225)
(225 180)
(180 194)
(197 255)
(255 124)
(124 197)
(200 283)
(283 109)
(109 200)
(203 228)
(228 143)
(143 203)
(206 230)
(230 173)
(173 206)
(209 218)
(218 112)
(112 209)
(212 285)
(285 127)
(127 212)
(215 235)
(235 136)
(136 215)
(218 237)
(184 218)
(237 184)
(220 227)
(227 100)
(100 220)
(222 194)
(194 115)
(115 222)
(225 264)
(179 225)
(264 179)
(227 242)
(177 227)
(242 177)
(228 206)
(175 228)
(206 175)
(230 268)
(172 230)
(268 172)
(232 253)
(253 129)
(129 232)
(235 257)
(169 235)
(257 169)
(237 273)
(167 237)
(273 167)
(239 262)
(262 118)
(118 239)
(242 279)
(164 242)
(279 164)
(244 266)
(266 106)
(106 244)
(250 275)
(275 146)
(146 250)
(253 284)
(159 253)
(284 159)
(255 271)
(157 255)
(271 157)
(257 265)
(155 257)
(265 155)
(259 281)
(281 139)
(139 259)
(262 288)
(152 262)
(288 152)
(264 276)
(150 264)
(276 150)
(265 250)
(148 265)
(250 148)
(266 203)
(145 266)
(203 145)
(268 282)
(142 268)
(282 142)
(269 259)
(259 97)
(97 269)
(271 215)
(138 271)
(215 138)
(273 286)
(135 273)
(286 135)
(275 289)
(133 275)
(289 133)
(276 232)
(131 276)
(232 131)
(277 212)
(212 103)
(103 277)
(279 197)
(126 279)
(197 126)
(281 437)
(123 281)
(437 123)
(282 239)
(120 282)
(239 120)
(283 222)
(117 283)
(222 117)
(284 209)
(114 284)
(209 114)
(285 200)
(111 285)
(200 111)
(286 244)
(108 286)
(244 108)
(105 287)
(287 277)
(277 105)
(288 220)
(102 288)
(220 102)
(289 269)
(99 289)
(269 99)
(291 333)
(333 81)
(81 291)
(294 376)
(376 68)
(68 294)
(297 321)
(321 53)
(53 297)
(300 356)
(356 79)
(79 300)
(303 384)
(384 18)
(18 303)
(306 381)
(381 59)
(59 306)
(309 375)
(375 6)
(6 309)
(312 359)
(359 74)
(74 312)
(315 438)
(438 65)
(65 315)
(318 385)
(385 48)
(48 318)
(321 380)
(85 321)
(380 85)
(323 364)
(364 70)
(70 323)
(325 291)
(291 56)
(56 325)
(327 300)
(300 43)
(43 327)
(330 379)
(379 61)
(61 330)
(333 346)
(77 333)
(346 77)
(334 312)
(312 36)
(36 334)
(337 383)
(383 50)
(50 337)
(340 353)
(353 63)
(63 340)
(342 323)
(323 31)
(31 342)
(344 294)
(294 45)
(45 344)
(346 315)
(67 346)
(315 67)
(347 340)
(340 41)
(41 347)
(349 330)
(330 3)
(3 349)
(351 306)
(306 38)
(38 351)
(353 325)
(58 353)
(325 58)
(354 297)
(297 55)
(356 337)
(52 356)
(337 52)
(357 318)
(318 33)
(33 357)
(359 344)
(47 359)
(344 47)
(360 327)
(327 24)
(24 360)
(362 347)
(347 21)
(21 362)
(364 351)
(40 364)
(351 40)
(365 334)
(334 12)
(12 365)
(368 382)
(382 9)
(9 368)
(370 357)
(357 26)
(26 370)
(372 342)
(342 0)
(0 372)
(375 386)
(30 375)
(386 30)
(376 370)
(28 376)
(370 28)
(377 360)
(360 15)
(15 377)
(379 362)
(23 379)
(362 23)
(380 303)
(20 380)
(303 20)
(381 377)
(17 381)
(377 17)
(382 365)
(14 382)
(365 14)
(383 368)
(11 383)
(368 11)
(384 309)
(8 384)
(309 8)
(385 349)
(5 385)
(349 5)
(386 372)
(2 386)
(372 2)
(440 105)
(247 287)
(105 247)
(54 55)
(247 248)
(354 355)
(355 161)
(389 388)
(391 390)
(393 392)
(395 394)
(397 396)
(399 398)
(401 400)
(403 402)
(405 404)
(407 406)
(392 408)
(410 409)
(411 389)
(412 395)
(414 413)
(388 415)
(416 403)
(418 417)
(420 419)
(421 410)
(422 391)
(415 405)
(423 420)
(424 414)
(425 399)
(419 411)
(248 426)
(426 393)
(394 418)
(427 407)
(402 422)
(428 412)
(429 423)
(409 425)
(430 416)
(432 431)
(433 427)
(434 421)
(400 435)
(390 433)
(436 428)
(413 429)
(408 397)
(398 436)
(431 430)
(417 432)
(396 401)
(406 424)
(435 434)
(55 354)
(32 1)
(62 4)
(90 7)
(35 10)
(37 13)
(25 16)
(92 19)
(42 22)
(44 25)
(34 27)
(1 29)
(71 32)
(49 34)
(13 35)
(75 37)
(60 39)
(64 42)
(80 44)
(69 46)
(86 49)
(73 51)
(94 54)
(82 57)
(91 60)
(78 62)
(72 64)
(88 66)
(95 69)
(83 71)
(57 72)
(10 73)
(89 75)
(66 76)
(22 78)
(93 80)
(96 82)
(39 83)
(19 84)
(4 86)
(87 439)
(439 88)
(46 89)
(29 90)
(16 91)
(7 92)
(51 93)
(84 94)
(27 95)
(76 96)
(121 387)
(161 440)
(280 437)
(314 438)
(387 314)
(404 280)
(437 121)
(438 87)
(440 247)
)

// concaveStart mixedStart nonFeatureStart
0 0 441
// internalStart flatStart openStart multipleStart
0 0 1096 1208
// normals
768{(-1 0 0)}
// normal volume types

768
(
0
0
0
0
0
0
0
0
0
0
0
0
0
0
0
0
0
0
0
0
0
0
0
0
0
0
0
0
0
0
0
0
0
0
0
0
0
0
0
0
0
0
0
0
0
0
0
0
0
0
0
0
0
0
0
0
0
0
0
0
0
0
0
0
0
0
0
0
0
0
0
0
0
0
0
0
0
0
0
0
0
0
0
0
0
0
0
0
0
0
0
0
0
0
0
0
0
0
0
0
0
0
0
0
0
0
0
0
0
0
0
0
0
0
0
0
0
0
0
0
0
0
0
0
0
0
0
0
0
0
0
0
0
0
0
0
0
0
0
0
0
0
0
0
0
0
0
0
0
0
0
0
0
0
0
0
0
0
0
0
0
0
0
0
0
0
0
0
0
0
0
0
0
0
0
0
0
0
0
0
0
0
0
0
0
0
0
0
0
0
0
0
0
0
0
0
0
0
0
0
0
0
0
0
0
0
0
0
0
0
0
0
0
0
0
0
0
0
0
0
0
0
0
0
0
0
0
0
0
0
0
0
0
0
0
0
0
0
0
0
0
0
0
0
0
0
0
0
0
0
0
0
0
0
0
0
0
0
0
0
0
0
0
0
0
0
0
0
0
0
0
0
0
0
0
0
0
0
0
0
0
0
0
0
0
0
0
0
0
0
0
0
0
0
0
0
0
0
0
0
0
0
0
0
0
0
0
0
0
0
0
0
0
0
0
0
0
0
0
0
0
0
0
0
0
0
0
0
0
0
0
0
0
0
0
0
0
0
0
0
0
0
0
0
0
0
0
0
0
0
0
0
0
0
0
0
0
0
0
0
0
0
0
0
0
0
0
0
0
0
0
0
0
0
0
0
0
0
0
0
0
0
0
0
0
0
0
0
0
0
0
0
0
0
0
0
0
0
0
0
0
0
0
0
0
0
0
0
0
0
0
0
0
0
0
0
0
0
0
0
0
0
0
0
0
0
0
0
0
0
0
0
0
0
0
0
0
0
0
0
0
0
0
0
0
0
0
0
0
0
0
0
0
0
0
0
0
0
0
0
0
0
0
0
0
0
0
0
0
0
0
0
0
0
0
0
0
0
0
0
0
0
0
0
0
0
0
0
0
0
0
0
0
0
0
0
0
0
0
0
0
0
0
0
0
0
0
0
0
0
0
0
0
0
0
0
0
0
0
0
0
0
0
0
0
0
0
0
0
0
0
0
0
0
0
0
0
0
0
0
0
0
0
0
0
0
0
0
0
0
0
0
0
0
0
0
0
0
0
0
0
0
0
0
0
0
0
0
0
0
0
0
0
0
0
0
0
0
0
0
0
0
0
0
0
0
0
0
0
0
0
0
0
0
0
0
0
0
0
0
0
0
0
0
0
0
0
0
0
0
0
0
0
0
0
0
0
0
0
0
0
0
0
0
0
0
0
0
0
0
0
0
0
0
0
0
0
0
0
0
0
0
0
0
0
0
0
0
0
0
0
0
0
0
0
0
0
0
0
0
0
0
0
0
0
0
0
0
0
0
0
0
0
0
0
0
0
0
0
0
0
0
0
0
0
0
0
0
0
0
0
0
0
0
0
0
0
0
0
0
0
0
0
0
0
0
0
0
0
0
0
0
0
0
0
0
0
0
0
0
0
0
0
0
0
0
0
0
0
0
0
0
0
0
0
0
0
0
0
0
0
0
0
0
0
0
0
0
0
0
0
0
0
0
0
0
0
0
0
0
0
0
0
0
0
0
0
0
)

// normalDirections

1208
(
2(1 -1)
2(1 -1)
2(1 -1)
2(1 -1)
2(1 -1)
2(1 -1)
2(1 -1)
2(1 -1)
2(1 -1)
2(1 -1)
2(1 -1)
2(1 -1)
2(1 -1)
2(1 -1)
2(1 -1)
2(1 -1)
2(1 -1)
2(1 -1)
2(1 -1)
2(1 -1)
2(1 -1)
2(1 -1)
2(1 -1)
2(1 -1)
2(1 -1)
2(1 -1)
2(1 -1)
2(1 -1)
2(1 -1)
2(1 -1)
2(1 -1)
2(1 -1)
2(1 -1)
2(1 -1)
2(1 -1)
2(1 -1)
2(1 -1)
2(1 -1)
2(1 -1)
2(1 -1)
2(1 -1)
2(1 -1)
2(1 -1)
2(1 -1)
2(1 -1)
2(1 -1)
2(1 -1)
2(1 -1)
2(1 -1)
2(1 -1)
2(1 -1)
2(1 -1)
2(1 -1)
2(1 -1)
2(1 -1)
2(1 -1)
2(1 -1)
2(1 -1)
2(1 -1)
2(1 -1)
2(1 -1)
2(1 -1)
2(1 -1)
2(1 -1)
2(1 -1)
2(1 -1)
2(1 -1)
2(1 -1)
2(1 -1)
2(1 -1)
2(1 -1)
2(1 -1)
2(1 -1)
2(1 -1)
2(1 -1)
2(1 -1)
2(1 -1)
2(1 -1)
2(1 -1)
2(1 -1)
2(1 -1)
2(1 -1)
2(1 -1)
2(1 -1)
2(1 -1)
2(1 -1)
2(1 -1)
2(1 -1)
2(1 -1)
2(1 -1)
2(1 -1)
2(1 -1)
2(1 -1)
2(1 -1)
2(1 -1)
2(1 -1)
2(1 -1)
2(1 -1)
2(1 -1)
2(1 -1)
2(1 -1)
2(1 -1)
2(1 -1)
2(1 -1)
2(1 -1)
2(1 -1)
2(1 -1)
2(1 -1)
2(1 -1)
2(1 -1)
2(1 -1)
2(1 -1)
2(1 -1)
2(1 -1)
2(1 -1)
2(1 -1)
2(1 -1)
2(1 -1)
2(1 -1)
2(1 -1)
2(1 -1)
2(1 -1)
2(1 -1)
2(1 -1)
2(1 -1)
2(1 -1)
2(1 -1)
2(1 -1)
2(1 -1)
2(1 -1)
2(1 -1)
2(1 -1)
2(1 -1)
2(1 -1)
2(1 -1)
2(1 -1)
2(1 -1)
2(1 -1)
2(1 -1)
2(1 -1)
2(1 -1)
2(1 -1)
2(1 -1)
2(1 -1)
2(1 -1)
2(1 -1)
2(1 -1)
2(1 -1)
2(1 -1)
2(1 -1)
2(1 -1)
2(1 -1)
2(1 -1)
2(1 -1)
2(1 -1)
2(1 -1)
2(1 -1)
2(1 -1)
2(1 -1)
2(1 -1)
2(1 -1)
2(1 -1)
2(1 -1)
2(1 -1)
2(1 -1)
2(1 -1)
2(1 -1)
2(1 -1)
2(1 -1)
2(1 -1)
2(1 -1)
2(1 -1)
2(1 -1)
2(1 -1)
2(1 -1)
2(1 -1)
2(1 -1)
2(1 -1)
2(1 -1)
2(1 -1)
2(1 -1)
2(1 -1)
2(1 -1)
2(1 -1)
2(1 -1)
2(1 -1)
2(1 -1)
2(1 -1)
2(1 -1)
2(1 -1)
2(1 -1)
2(1 -1)
2(1 -1)
2(1 -1)
2(1 -1)
2(1 -1)
2(1 -1)
2(1 -1)
2(1 -1)
2(1 -1)
2(1 -1)
2(1 -1)
2(1 -1)
2(1 -1)
2(1 -1)
2(1 -1)
2(1 -1)
2(1 -1)
2(1 -1)
2(1 -1)
2(1 -1)
2(1 -1)
2(1 -1)
2(1 -1)
2(1 -1)
2(1 -1)
2(1 -1)
2(1 -1)
2(1 -1)
2(1 -1)
2(1 -1)
2(1 -1)
2(1 -1)
2(1 -1)
2(1 -1)
2(1 -1)
2(1 -1)
2(1 -1)
2(1 -1)
2(1 -1)
2(1 -1)
2(1 -1)
2(1 -1)
2(1 -1)
2(1 -1)
2(1 -1)
2(1 -1)
2(1 -1)
2(1 -1)
2(1 -1)
2(1 -1)
2(1 -1)
2(1 -1)
2(1 -1)
2(1 -1)
2(1 -1)
2(1 -1)
2(1 -1)
2(1 -1)
2(1 -1)
2(1 -1)
2(1 -1)
2(1 -1)
2(1 -1)
2(1 -1)
2(1 -1)
2(1 -1)
2(1 -1)
2(1 -1)
2(1 -1)
2(1 -1)
2(1 -1)
2(1 -1)
2(1 -1)
2(1 -1)
2(1 -1)
2(1 -1)
2(1 -1)
2(1 -1)
2(1 -1)
2(1 -1)
2(1 -1)
2(1 -1)
2(1 -1)
2(1 -1)
2(1 -1)
2(1 -1)
2(1 -1)
2(1 -1)
2(1 -1)
2(1 -1)
2(1 -1)
2(1 -1)
2(1 -1)
2(1 -1)
2(1 -1)
2(1 -1)
2(1 -1)
2(1 -1)
2(1 -1)
2(1 -1)
2(1 -1)
2(1 -1)
2(1 -1)
2(1 -1)
2(1 -1)
2(1 -1)
2(1 -1)
2(1 -1)
2(1 -1)
2(1 -1)
2(1 -1)
2(1 -1)
2(1 -1)
2(1 -1)
2(1 -1)
2(1 -1)
2(1 -1)
2(1 -1)
2(1 -1)
2(1 -1)
2(1 -1)
2(1 -1)
2(1 -1)
2(1 -1)
2(1 -1)
2(1 -1)
2(1 -1)
2(1 -1)
2(1 -1)
2(1 -1)
2(1 -1)
2(1 -1)
2(1 -1)
2(1 -1)
2(1 -1)
2(1 -1)
2(1 -1)
2(1 -1)
2(1 -1)
2(1 -1)
2(1 -1)
2(1 -1)
2(1 -1)
2(1 -1)
2(1 -1)
2(1 -1)
2(1 -1)
2(1 -1)
2(1 -1)
2(1 -1)
2(1 -1)
2(1 -1)
2(1 -1)
2(1 -1)
2(1 -1)
2(1 -1)
2(1 -1)
2(1 -1)
2(1 -1)
2(1 -1)
2(1 -1)
2(1 -1)
2(1 -1)
2(1 -1)
2(1 -1)
2(1 -1)
2(1 -1)
2(1 -1)
2(1 -1)
2(1 -1)
2(1 -1)
2(1 -1)
2(1 -1)
2(1 -1)
2(1 -1)
2(1 -1)
2(1 -1)
2(1 -1)
2(1 -1)
2(1 -1)
2(1 -1)
2(1 -1)
2(1 -1)
2(1 -1)
2(1 -1)
2(1 -1)
2(1 -1)
2(1 -1)
2(1 -1)
2(1 -1)
2(1 -1)
2(1 -1)
2(1 -1)
2(1 -1)
2(1 -1)
2(1 -1)
2(1 -1)
2(1 -1)
2(1 -1)
2(1 -1)
2(1 -1)
2(1 -1)
2(1 -1)
2(1 -1)
2(1 -1)
2(1 -1)
2(1 -1)
2(1 -1)
2(1 -1)
2(1 -1)
2(1 -1)
2(1 -1)
2(1 -1)
2(1 -1)
2(1 -1)
2(1 -1)
2(1 -1)
2(1 -1)
2(1 -1)
2(1 -1)
2(1 -1)
2(1 -1)
2(1 -1)
2(1 -1)
2(1 -1)
2(1 -1)
2(1 -1)
2(1 -1)
2(1 -1)
2(1 -1)
2(1 -1)
2(1 -1)
2(1 -1)
2(1 -1)
2(1 -1)
2(1 -1)
2(1 -1)
2(1 -1)
2(1 -1)
2(1 -1)
2(1 -1)
2(1 -1)
2(1 -1)
2(1 -1)
2(1 -1)
2(1 -1)
2(1 -1)
2(1 -1)
2(1 -1)
2(1 -1)
2(1 -1)
2(1 -1)
2(1 -1)
2(1 -1)
2(1 -1)
2(1 -1)
2(1 -1)
2(1 -1)
2(1 -1)
2(1 -1)
2(1 -1)
2(1 -1)
2(1 -1)
2(1 -1)
2(1 -1)
2(1 -1)
2(1 -1)
2(1 -1)
2(1 -1)
2(1 -1)
2(1 -1)
2(1 -1)
2(1 -1)
2(1 -1)
2(1 -1)
2(1 -1)
2(1 -1)
2(1 -1)
2(1 -1)
2(1 -1)
2(1 -1)
2(1 -1)
2(1 -1)
2(1 -1)
2(1 -1)
2(1 -1)
2(1 -1)
2(1 -1)
2(1 -1)
2(1 -1)
2(1 -1)
2(1 -1)
2(1 -1)
2(1 -1)
2(1 -1)
2(1 -1)
2(1 -1)
2(1 -1)
2(1 -1)
2(1 -1)
2(1 -1)
2(1 -1)
2(1 -1)
2(1 -1)
2(1 -1)
2(1 -1)
2(1 -1)
2(1 -1)
2(1 -1)
2(1 -1)
2(1 -1)
2(1 -1)
2(1 -1)
2(1 -1)
2(1 -1)
2(1 -1)
2(1 -1)
2(1 -1)
2(1 -1)
2(1 -1)
2(1 -1)
2(1 -1)
2(1 -1)
2(1 -1)
2(1 -1)
2(1 -1)
2(1 -1)
2(1 -1)
2(1 -1)
2(1 -1)
2(1 -1)
2(1 -1)
2(1 -1)
2(1 -1)
2(1 -1)
2(1 -1)
2(1 -1)
2(1 -1)
2(1 -1)
2(1 -1)
2(1 -1)
2(1 -1)
2(1 -1)
2(1 -1)
2(1 -1)
2(1 -1)
2(1 -1)
2(1 -1)
2(1 -1)
2(1 -1)
2(1 -1)
2(1 -1)
2(1 -1)
2(1 -1)
2(1 -1)
2(1 -1)
2(1 -1)
2(1 -1)
2(1 -1)
2(1 -1)
2(1 -1)
2(1 -1)
2(1 -1)
2(1 -1)
2(1 -1)
2(1 -1)
2(1 -1)
2(1 -1)
2(1 -1)
2(1 -1)
2(1 -1)
2(1 -1)
2(1 -1)
2(1 -1)
2(1 -1)
2(1 -1)
2(1 -1)
2(1 -1)
2(1 -1)
2(1 -1)
2(1 -1)
2(1 -1)
2(1 -1)
2(1 -1)
2(1 -1)
2(1 -1)
2(1 -1)
2(1 -1)
2(1 -1)
2(1 -1)
2(1 -1)
2(1 -1)
2(1 -1)
2(1 -1)
2(1 -1)
2(1 -1)
2(1 -1)
2(1 -1)
2(1 -1)
2(1 -1)
2(1 -1)
2(1 -1)
2(1 -1)
2(1 -1)
2(1 -1)
2(1 -1)
2(1 -1)
2(1 -1)
2(1 -1)
2(1 -1)
2(1 -1)
2(1 -1)
2(1 -1)
2(1 -1)
2(1 -1)
2(1 -1)
2(1 -1)
2(1 -1)
2(1 -1)
2(1 -1)
2(1 -1)
2(1 -1)
2(1 -1)
2(1 -1)
2(1 -1)
2(1 -1)
2(1 -1)
2(1 -1)
2(1 -1)
2(1 -1)
2(1 -1)
2(1 -1)
2(1 -1)
2(1 -1)
2(1 -1)
2(1 -1)
2(1 -1)
2(1 -1)
2(1 -1)
2(1 -1)
2(1 -1)
2(1 -1)
2(1 -1)
2(1 -1)
2(1 -1)
2(1 -1)
2(1 -1)
2(1 -1)
2(1 -1)
2(1 -1)
2(1 -1)
2(1 -1)
2(1 -1)
2(1 -1)
2(1 -1)
2(1 -1)
2(1 -1)
2(1 -1)
2(1 -1)
2(1 -1)
2(1 -1)
2(1 -1)
2(1 -1)
2(1 -1)
2(1 -1)
2(1 -1)
2(1 -1)
2(1 -1)
2(1 -1)
2(1 -1)
2(1 -1)
2(1 -1)
2(1 -1)
2(1 -1)
2(1 -1)
2(1 -1)
2(1 -1)
2(1 -1)
2(1 -1)
2(1 -1)
2(1 -1)
2(1 -1)
2(1 -1)
2(1 -1)
2(1 -1)
2(1 -1)
2(1 -1)
2(1 -1)
2(1 -1)
2(1 -1)
2(1 -1)
2(1 -1)
2(1 -1)
2(1 -1)
2(1 -1)
2(1 -1)
2(1 -1)
2(1 -1)
2(1 -1)
2(1 -1)
2(1 -1)
2(1 -1)
2(1 -1)
2(1 -1)
2(1 -1)
2(1 -1)
2(1 -1)
2(1 -1)
2(1 -1)
2(1 -1)
2(1 -1)
2(1 -1)
2(1 -1)
2(1 -1)
2(1 -1)
2(1 -1)
2(1 -1)
2(1 -1)
2(1 -1)
2(1 -1)
2(1 -1)
2(1 -1)
2(1 -1)
2(1 -1)
2(1 -1)
2(1 -1)
2(1 -1)
2(1 -1)
2(1 -1)
2(1 -1)
2(1 -1)
2(1 -1)
2(1 -1)
2(1 -1)
2(1 -1)
2(1 -1)
2(1 -1)
2(1 -1)
2(1 -1)
2(1 -1)
2(1 -1)
2(1 -1)
2(1 -1)
2(1 -1)
2(1 -1)
2(1 -1)